REMARK  6 active torsions:
REMARK  status: ('A' for Active; 'I' for Inactive)
REMARK    1  A    between atoms: C4_4  and  C7_7 
REMARK    2  A    between atoms: C7_7  and  C8_8 
REMARK    3  A    between atoms: C7_7  and  S1_14 
REMARK    4  A    between atoms: C14_16  and  S1_14 
REMARK    5  A    between atoms: C14_16  and  C15_17 
REMARK       I    between atoms: C15_17  and  N1_19 
REMARK    6  A    between atoms: N1_19  and  O3_20 
ROOT
HETATM    1  C7  <0>     1      53.719 -17.997 -28.408  1.00  0.00     0.145 C 
ENDROOT
BRANCH   1   2
HETATM    2  C4  <0>     1      53.593 -19.379 -27.820  1.00  0.00    -0.038 A 
HETATM    3  C3  <0>     1      53.252 -19.536 -26.490  1.00  0.00     0.009 A 
HETATM    4  C2  <0>     1      53.136 -20.803 -25.951  1.00  0.00     0.001 A 
HETATM    5  C1  <0>     1      53.361 -21.914 -26.742  1.00  0.00     0.000 A 
HETATM    6  C6  <0>     1      53.701 -21.757 -28.073  1.00  0.00     0.001 A 
HETATM    7  C5  <0>     1      53.819 -20.490 -28.611  1.00  0.00     0.009 A 
ENDBRANCH   1   2
BRANCH   1   8
HETATM    8  C8  <0>     1      55.157 -17.738 -28.779  1.00  0.00    -0.038 A 
HETATM    9  C13 <0>     1      55.886 -16.783 -28.095  1.00  0.00     0.009 A 
HETATM   10  C12 <0>     1      57.205 -16.548 -28.433  1.00  0.00     0.001 A 
HETATM   11  C11 <0>     1      57.794 -17.262 -29.460  1.00  0.00     0.000 A 
HETATM   12  C10 <0>     1      57.063 -18.213 -30.147  1.00  0.00     0.001 A 
HETATM   13  C9  <0>     1      55.745 -18.451 -29.807  1.00  0.00     0.009 A 
ENDBRANCH   1   8
BRANCH   1  14
HETATM   14  S1  <0>     1      52.680 -17.873 -29.890  1.00  0.00     0.037 S 
HETATM   15  O1  <0>     1      53.075 -18.864 -30.829  1.00  0.00    -0.257 OA
BRANCH  14  16
HETATM   16  C14 <0>     1      53.057 -16.227 -30.554  1.00  0.00     0.214 C 
BRANCH  16  17
HETATM   17  C15 <0>     1      52.249 -15.993 -31.804  1.00  0.00     0.252 C 
HETATM   18  O2  <0>     1      51.494 -16.852 -32.208  1.00  0.00    -0.270 OA
HETATM   19  N1  <0>     1      52.366 -14.830 -32.474  1.00  0.00    -0.237 N 
HETATM   20  H14 <0>     1      52.970 -14.143 -32.151  1.00  0.00     0.197 HD
BRANCH  19  21
HETATM   21  O3  <0>     1      51.607 -14.610 -33.649  1.00  0.00    -0.287 OA
HETATM   22  H15 <0>     1      51.758 -13.747 -34.059  1.00  0.00     0.244 HD
ENDBRANCH  19  21
ENDBRANCH  16  17
ENDBRANCH  14  16
ENDBRANCH   1  14
TORSDOF 6
