MODEL 1
REMARK VINA RESULT:      -7.2      0.000      0.000
REMARK  6 active torsions:
REMARK  status: ('A' for Active; 'I' for Inactive)
REMARK    1  A    between atoms: C4_4  and  C7_7 
REMARK    2  A    between atoms: C7_7  and  C8_8 
REMARK    3  A    between atoms: C7_7  and  S1_14 
REMARK    4  A    between atoms: C14_16  and  S1_14 
REMARK    5  A    between atoms: C14_16  and  C15_17 
REMARK       I    between atoms: C15_17  and  N1_19 
REMARK    6  A    between atoms: N1_19  and  O3_20 
ROOT
HETATM    1  C7  <0>     1      34.823  15.625 -20.113  1.00  0.00     0.145 C 
ENDROOT
BRANCH   1   2
HETATM    2  C4  <0>     1      33.580  15.370 -20.927  1.00  0.00    -0.038 A 
HETATM    3  C3  <0>     1      33.347  16.096 -22.080  1.00  0.00     0.009 A 
HETATM    4  C2  <0>     1      32.209  15.862 -22.826  1.00  0.00     0.001 A 
HETATM    5  C1  <0>     1      31.302  14.901 -22.421  1.00  0.00     0.000 A 
HETATM    6  C6  <0>     1      31.535  14.173 -21.269  1.00  0.00     0.001 A 
HETATM    7  C5  <0>     1      32.673  14.409 -20.521  1.00  0.00     0.009 A 
ENDBRANCH   1   2
BRANCH   1   8
HETATM    8  C8  <0>     1      34.451  15.762 -18.659  1.00  0.00    -0.038 A 
HETATM    9  C13 <0>     1      34.712  16.941 -17.987  1.00  0.00     0.009 A 
HETATM   10  C12 <0>     1      34.368  17.068 -16.654  1.00  0.00     0.001 A 
HETATM   11  C11 <0>     1      33.771  16.012 -15.991  1.00  0.00     0.000 A 
HETATM   12  C10 <0>     1      33.515  14.831 -16.662  1.00  0.00     0.001 A 
HETATM   13  C9  <0>     1      33.855  14.705 -17.995  1.00  0.00     0.009 A 
ENDBRANCH   1   8
BRANCH   1  14
HETATM   14  S1  <0>     1      35.974  14.238 -20.316  1.00  0.00     0.037 S 
HETATM   15  O1  <0>     1      37.188  14.527 -19.636  1.00  0.00    -0.257 OA
BRANCH  14  16
HETATM   16  C14 <0>     1      36.282  14.180 -22.103  1.00  0.00     0.214 C 
BRANCH  16  17
HETATM   17  C15 <0>     1      35.943  12.808 -22.627  1.00  0.00     0.252 C 
HETATM   18  O2  <0>     1      34.888  12.289 -22.329  1.00  0.00    -0.270 OA
HETATM   19  N1  <0>     1      36.813  12.158 -23.424  1.00  0.00    -0.237 N 
HETATM   20  H14 <0>     1      37.657  12.573 -23.662  1.00  0.00     0.197 HD
BRANCH  19  21
HETATM   21  O3  <0>     1      36.495  10.869 -23.916  1.00  0.00    -0.287 OA
HETATM   22  H15 <0>     1      35.545  10.690 -23.966  1.00  0.00     0.244 HD
ENDBRANCH  19  21
ENDBRANCH  16  17
ENDBRANCH  14  16
ENDBRANCH   1  14
TORSDOF 6
ENDMDL
MODEL 2
REMARK VINA RESULT:      -7.2      1.714      1.939
REMARK  6 active torsions:
REMARK  status: ('A' for Active; 'I' for Inactive)
REMARK    1  A    between atoms: C4_4  and  C7_7 
REMARK    2  A    between atoms: C7_7  and  C8_8 
REMARK    3  A    between atoms: C7_7  and  S1_14 
REMARK    4  A    between atoms: C14_16  and  S1_14 
REMARK    5  A    between atoms: C14_16  and  C15_17 
REMARK       I    between atoms: C15_17  and  N1_19 
REMARK    6  A    between atoms: N1_19  and  O3_20 
ROOT
HETATM    1  C7  <0>     1      34.740  15.616 -20.419  1.00  0.00     0.145 C 
ENDROOT
BRANCH   1   2
HETATM    2  C4  <0>     1      33.452  15.341 -21.152  1.00  0.00    -0.038 A 
HETATM    3  C3  <0>     1      33.088  16.127 -22.229  1.00  0.00     0.009 A 
HETATM    4  C2  <0>     1      31.908  15.875 -22.902  1.00  0.00     0.001 A 
HETATM    5  C1  <0>     1      31.091  14.835 -22.498  1.00  0.00     0.000 A 
HETATM    6  C6  <0>     1      31.456  14.048 -21.422  1.00  0.00     0.001 A 
HETATM    7  C5  <0>     1      32.635  14.302 -20.748  1.00  0.00     0.009 A 
ENDBRANCH   1   2
BRANCH   1   8
HETATM    8  C8  <0>     1      34.456  15.768 -18.946  1.00  0.00    -0.038 A 
HETATM    9  C13 <0>     1      34.783  16.944 -18.297  1.00  0.00     0.009 A 
HETATM   10  C12 <0>     1      34.520  17.084 -16.947  1.00  0.00     0.001 A 
HETATM   11  C11 <0>     1      33.938  16.045 -16.245  1.00  0.00     0.000 A 
HETATM   12  C10 <0>     1      33.617  14.867 -16.893  1.00  0.00     0.001 A 
HETATM   13  C9  <0>     1      33.876  14.728 -18.243  1.00  0.00     0.009 A 
ENDBRANCH   1   8
BRANCH   1  14
HETATM   14  S1  <0>     1      35.889  14.237 -20.675  1.00  0.00     0.037 S 
HETATM   15  O1  <0>     1      37.161  14.574 -20.137  1.00  0.00    -0.257 OA
BRANCH  14  16
HETATM   16  C14 <0>     1      36.015  14.099 -22.480  1.00  0.00     0.214 C 
BRANCH  16  17
HETATM   17  C15 <0>     1      36.791  15.272 -23.020  1.00  0.00     0.252 C 
HETATM   18  O2  <0>     1      36.205  16.203 -23.531  1.00  0.00    -0.270 OA
HETATM   19  N1  <0>     1      38.135  15.286 -22.937  1.00  0.00    -0.237 N 
HETATM   20  H14 <0>     1      38.604  14.542 -22.528  1.00  0.00     0.197 HD
BRANCH  19  21
HETATM   21  O3  <0>     1      38.865  16.389 -23.444  1.00  0.00    -0.287 OA
HETATM   22  H15 <0>     1      39.325  16.902 -22.766  1.00  0.00     0.244 HD
ENDBRANCH  19  21
ENDBRANCH  16  17
ENDBRANCH  14  16
ENDBRANCH   1  14
TORSDOF 6
ENDMDL
MODEL 3
REMARK VINA RESULT:      -7.2      1.712      2.218
REMARK  6 active torsions:
REMARK  status: ('A' for Active; 'I' for Inactive)
REMARK    1  A    between atoms: C4_4  and  C7_7 
REMARK    2  A    between atoms: C7_7  and  C8_8 
REMARK    3  A    between atoms: C7_7  and  S1_14 
REMARK    4  A    between atoms: C14_16  and  S1_14 
REMARK    5  A    between atoms: C14_16  and  C15_17 
REMARK       I    between atoms: C15_17  and  N1_19 
REMARK    6  A    between atoms: N1_19  and  O3_20 
ROOT
HETATM    1  C7  <0>     1      34.735  15.611 -20.432  1.00  0.00     0.145 C 
ENDROOT
BRANCH   1   2
HETATM    2  C4  <0>     1      33.444  15.333 -21.160  1.00  0.00    -0.038 A 
HETATM    3  C3  <0>     1      32.632  14.292 -20.754  1.00  0.00     0.009 A 
HETATM    4  C2  <0>     1      31.449  14.038 -21.421  1.00  0.00     0.001 A 
HETATM    5  C1  <0>     1      31.077  14.826 -22.494  1.00  0.00     0.000 A 
HETATM    6  C6  <0>     1      31.889  15.869 -22.899  1.00  0.00     0.001 A 
HETATM    7  C5  <0>     1      33.073  16.121 -22.234  1.00  0.00     0.009 A 
ENDBRANCH   1   2
BRANCH   1   8
HETATM    8  C8  <0>     1      34.458  15.762 -18.958  1.00  0.00    -0.038 A 
HETATM    9  C13 <0>     1      34.783  16.940 -18.312  1.00  0.00     0.009 A 
HETATM   10  C12 <0>     1      34.526  17.080 -16.961  1.00  0.00     0.001 A 
HETATM   11  C11 <0>     1      33.951  16.041 -16.255  1.00  0.00     0.000 A 
HETATM   12  C10 <0>     1      33.631  14.861 -16.901  1.00  0.00     0.001 A 
HETATM   13  C9  <0>     1      33.885  14.722 -18.252  1.00  0.00     0.009 A 
ENDBRANCH   1   8
BRANCH   1  14
HETATM   14  S1  <0>     1      35.885  14.232 -20.693  1.00  0.00     0.037 S 
HETATM   15  O1  <0>     1      37.154  14.565 -20.147  1.00  0.00    -0.257 OA
BRANCH  14  16
HETATM   16  C14 <0>     1      36.017  14.107 -22.498  1.00  0.00     0.214 C 
BRANCH  16  17
HETATM   17  C15 <0>     1      36.797  15.282 -23.027  1.00  0.00     0.252 C 
HETATM   18  O2  <0>     1      36.214  16.225 -23.519  1.00  0.00    -0.270 OA
HETATM   19  N1  <0>     1      38.143  15.286 -22.955  1.00  0.00    -0.237 N 
HETATM   20  H14 <0>     1      38.609  14.531 -22.562  1.00  0.00     0.197 HD
BRANCH  19  21
HETATM   21  O3  <0>     1      38.876  16.390 -23.452  1.00  0.00    -0.287 OA
HETATM   22  H15 <0>     1      39.614  16.146 -24.027  1.00  0.00     0.244 HD
ENDBRANCH  19  21
ENDBRANCH  16  17
ENDBRANCH  14  16
ENDBRANCH   1  14
TORSDOF 6
ENDMDL
MODEL 4
REMARK VINA RESULT:      -7.2      0.789      1.379
REMARK  6 active torsions:
REMARK  status: ('A' for Active; 'I' for Inactive)
REMARK    1  A    between atoms: C4_4  and  C7_7 
REMARK    2  A    between atoms: C7_7  and  C8_8 
REMARK    3  A    between atoms: C7_7  and  S1_14 
REMARK    4  A    between atoms: C14_16  and  S1_14 
REMARK    5  A    between atoms: C14_16  and  C15_17 
REMARK       I    between atoms: C15_17  and  N1_19 
REMARK    6  A    between atoms: N1_19  and  O3_20 
ROOT
HETATM    1  C7  <0>     1      34.799  15.638 -20.177  1.00  0.00     0.145 C 
ENDROOT
BRANCH   1   2
HETATM    2  C4  <0>     1      33.551  15.384 -20.984  1.00  0.00    -0.038 A 
HETATM    3  C3  <0>     1      32.678  14.381 -20.610  1.00  0.00     0.009 A 
HETATM    4  C2  <0>     1      31.534  14.149 -21.349  1.00  0.00     0.001 A 
HETATM    5  C1  <0>     1      31.262  14.920 -22.463  1.00  0.00     0.000 A 
HETATM    6  C6  <0>     1      32.135  15.925 -22.837  1.00  0.00     0.001 A 
HETATM    7  C5  <0>     1      33.280  16.155 -22.099  1.00  0.00     0.009 A 
ENDBRANCH   1   2
BRANCH   1   8
HETATM    8  C8  <0>     1      34.438  15.760 -18.719  1.00  0.00    -0.038 A 
HETATM    9  C13 <0>     1      34.726  16.924 -18.031  1.00  0.00     0.009 A 
HETATM   10  C12 <0>     1      34.392  17.038 -16.695  1.00  0.00     0.001 A 
HETATM   11  C11 <0>     1      33.778  15.985 -16.044  1.00  0.00     0.000 A 
HETATM   12  C10 <0>     1      33.495  14.819 -16.730  1.00  0.00     0.001 A 
HETATM   13  C9  <0>     1      33.825  14.706 -18.067  1.00  0.00     0.009 A 
ENDBRANCH   1   8
BRANCH   1  14
HETATM   14  S1  <0>     1      35.955  14.257 -20.401  1.00  0.00     0.037 S 
HETATM   15  O1  <0>     1      37.134  14.500 -19.645  1.00  0.00    -0.257 OA
BRANCH  14  16
HETATM   16  C14 <0>     1      36.352  14.299 -22.171  1.00  0.00     0.214 C 
BRANCH  16  17
HETATM   17  C15 <0>     1      35.744  13.099 -22.850  1.00  0.00     0.252 C 
HETATM   18  O2  <0>     1      36.182  11.990 -22.629  1.00  0.00    -0.270 OA
HETATM   19  N1  <0>     1      34.715  13.258 -23.705  1.00  0.00    -0.237 N 
HETATM   20  H14 <0>     1      34.364  14.146 -23.882  1.00  0.00     0.197 HD
BRANCH  19  21
HETATM   21  O3  <0>     1      34.144  12.131 -24.343  1.00  0.00    -0.287 OA
HETATM   22  H15 <0>     1      33.381  12.339 -24.901  1.00  0.00     0.244 HD
ENDBRANCH  19  21
ENDBRANCH  16  17
ENDBRANCH  14  16
ENDBRANCH   1  14
TORSDOF 6
ENDMDL
MODEL 5
REMARK VINA RESULT:      -6.8      2.184      4.620
REMARK  6 active torsions:
REMARK  status: ('A' for Active; 'I' for Inactive)
REMARK    1  A    between atoms: C4_4  and  C7_7 
REMARK    2  A    between atoms: C7_7  and  C8_8 
REMARK    3  A    between atoms: C7_7  and  S1_14 
REMARK    4  A    between atoms: C14_16  and  S1_14 
REMARK    5  A    between atoms: C14_16  and  C15_17 
REMARK       I    between atoms: C15_17  and  N1_19 
REMARK    6  A    between atoms: N1_19  and  O3_20 
ROOT
HETATM    1  C7  <0>     1      34.613  14.007 -20.758  1.00  0.00     0.145 C 
ENDROOT
BRANCH   1   2
HETATM    2  C4  <0>     1      34.394  14.586 -19.384  1.00  0.00    -0.038 A 
HETATM    3  C3  <0>     1      34.908  15.829 -19.067  1.00  0.00     0.009 A 
HETATM    4  C2  <0>     1      34.707  16.359 -17.807  1.00  0.00     0.001 A 
HETATM    5  C1  <0>     1      33.991  15.647 -16.863  1.00  0.00     0.000 A 
HETATM    6  C6  <0>     1      33.475  14.405 -17.181  1.00  0.00     0.001 A 
HETATM    7  C5  <0>     1      33.678  13.873 -18.440  1.00  0.00     0.009 A 
ENDBRANCH   1   2
BRANCH   1   8
HETATM    8  C8  <0>     1      33.318  14.042 -21.530  1.00  0.00    -0.038 A 
HETATM    9  C13 <0>     1      33.150  13.227 -22.634  1.00  0.00     0.009 A 
HETATM   10  C12 <0>     1      31.962  13.257 -23.340  1.00  0.00     0.001 A 
HETATM   11  C11 <0>     1      30.945  14.107 -22.947  1.00  0.00     0.000 A 
HETATM   12  C10 <0>     1      31.116  14.925 -21.846  1.00  0.00     0.001 A 
HETATM   13  C9  <0>     1      32.302  14.893 -21.138  1.00  0.00     0.009 A 
ENDBRANCH   1   8
BRANCH   1  14
HETATM   14  S1  <0>     1      35.866  14.985 -21.634  1.00  0.00     0.037 S 
HETATM   15  O1  <0>     1      35.234  16.057 -22.320  1.00  0.00    -0.257 OA
BRANCH  14  16
HETATM   16  C14 <0>     1      36.565  13.823 -22.839  1.00  0.00     0.214 C 
BRANCH  16  17
HETATM   17  C15 <0>     1      37.560  14.544 -23.711  1.00  0.00     0.252 C 
HETATM   18  O2  <0>     1      37.759  14.165 -24.846  1.00  0.00    -0.270 OA
HETATM   19  N1  <0>     1      38.231  15.608 -23.230  1.00  0.00    -0.237 N 
HETATM   20  H14 <0>     1      38.072  15.911 -22.322  1.00  0.00     0.197 HD
BRANCH  19  21
HETATM   21  O3  <0>     1      39.167  16.285 -24.049  1.00  0.00    -0.287 OA
HETATM   22  H15 <0>     1      39.369  17.184 -23.755  1.00  0.00     0.244 HD
ENDBRANCH  19  21
ENDBRANCH  16  17
ENDBRANCH  14  16
ENDBRANCH   1  14
TORSDOF 6
ENDMDL
MODEL 6
REMARK VINA RESULT:      -6.7      2.543      5.494
REMARK  6 active torsions:
REMARK  status: ('A' for Active; 'I' for Inactive)
REMARK    1  A    between atoms: C4_4  and  C7_7 
REMARK    2  A    between atoms: C7_7  and  C8_8 
REMARK    3  A    between atoms: C7_7  and  S1_14 
REMARK    4  A    between atoms: C14_16  and  S1_14 
REMARK    5  A    between atoms: C14_16  and  C15_17 
REMARK       I    between atoms: C15_17  and  N1_19 
REMARK    6  A    between atoms: N1_19  and  O3_20 
ROOT
HETATM    1  C7  <0>     1      34.934  13.902 -21.300  1.00  0.00     0.145 C 
ENDROOT
BRANCH   1   2
HETATM    2  C4  <0>     1      33.631  14.394 -21.876  1.00  0.00    -0.038 A 
HETATM    3  C3  <0>     1      32.532  13.557 -21.914  1.00  0.00     0.009 A 
HETATM    4  C2  <0>     1      31.338  14.008 -22.442  1.00  0.00     0.001 A 
HETATM    5  C1  <0>     1      31.241  15.297 -22.931  1.00  0.00     0.000 A 
HETATM    6  C6  <0>     1      32.341  16.135 -22.892  1.00  0.00     0.001 A 
HETATM    7  C5  <0>     1      33.536  15.683 -22.366  1.00  0.00     0.009 A 
ENDBRANCH   1   2
BRANCH   1   8
HETATM    8  C8  <0>     1      35.979  13.856 -22.386  1.00  0.00    -0.038 A 
HETATM    9  C13 <0>     1      36.754  14.971 -22.647  1.00  0.00     0.009 A 
HETATM   10  C12 <0>     1      37.713  14.928 -23.640  1.00  0.00     0.001 A 
HETATM   11  C11 <0>     1      37.893  13.774 -24.379  1.00  0.00     0.000 A 
HETATM   12  C10 <0>     1      37.114  12.661 -24.122  1.00  0.00     0.001 A 
HETATM   13  C9  <0>     1      36.157  12.702 -23.126  1.00  0.00     0.009 A 
ENDBRANCH   1   8
BRANCH   1  14
HETATM   14  S1  <0>     1      35.478  15.027 -19.985  1.00  0.00     0.037 S 
HETATM   15  O1  <0>     1      36.723  14.581 -19.465  1.00  0.00    -0.257 OA
BRANCH  14  16
HETATM   16  C14 <0>     1      34.198  14.863 -18.709  1.00  0.00     0.214 C 
BRANCH  16  17
HETATM   17  C15 <0>     1      34.430  15.888 -17.630  1.00  0.00     0.252 C 
HETATM   18  O2  <0>     1      33.852  15.793 -16.568  1.00  0.00    -0.270 OA
HETATM   19  N1  <0>     1      35.278  16.913 -17.846  1.00  0.00    -0.237 N 
HETATM   20  H14 <0>     1      35.740  16.989 -18.695  1.00  0.00     0.197 HD
BRANCH  19  21
HETATM   21  O3  <0>     1      35.496  17.877 -16.832  1.00  0.00    -0.287 OA
HETATM   22  H15 <0>     1      36.337  18.348 -16.911  1.00  0.00     0.244 HD
ENDBRANCH  19  21
ENDBRANCH  16  17
ENDBRANCH  14  16
ENDBRANCH   1  14
TORSDOF 6
ENDMDL
