@<TRIPOS>MOLECULE
ZINC01664272
   42    45     0     0     0
SMALL
USER_CHARGES

@<TRIPOS>ATOM
      1 C1         -0.0167    1.3791    0.0096 C.ar      1 <0>        -0.1161
      2 C2          1.1686    2.0923    0.0021 C.ar      1 <0>        -0.1202
      3 C3          2.3774    1.4268   -0.0129 C.ar      1 <0>        -0.1070
      4 C4          2.4025    0.0330   -0.0206 C.ar      1 <0>        -0.0460
      5 C5          1.2049   -0.6804   -0.0130 C.ar      1 <0>        -0.0937
      6 C6          0.0021   -0.0041    0.0020 C.ar      1 <0>        -0.1182
      7 C7          3.6979   -0.6878   -0.0373 C.ar      1 <0>        -0.0327
      8 C8          4.6779   -0.3424   -0.9640 C.ar      1 <0>        -0.1046
      9 C9          5.8860   -1.0125   -0.9818 C.ar      1 <0>        -0.1123
     10 C10         6.1362   -2.0315   -0.0830 C.ar      1 <0>        -0.1046
     11 C11         5.1710   -2.3944    0.8524 C.ar      1 <0>        -0.0326
     12 C12         3.9431   -1.7166    0.8843 C.ar      1 <0>        -0.0262
     13 C13         2.9112   -2.0887    1.8791 C.ar      1 <0>        -0.0346
     14 C14         2.5234   -1.1764    2.8604 C.ar      1 <0>        -0.1005
     15 C15         1.5614   -1.5290    3.7845 C.ar      1 <0>        -0.1163
     16 C16         0.9818   -2.7844    3.7392 C.ar      1 <0>        -0.1168
     17 C17         1.3622   -3.6936    2.7683 C.ar      1 <0>        -0.1162
     18 C18         2.3190   -3.3507    1.8351 C.ar      1 <0>        -0.1004
     19 C19         5.4422   -3.4885    1.8153 C.ar      1 <0>        -0.0462
     20 C20         5.2099   -3.2964    3.1764 C.ar      1 <0>        -0.0937
     21 C21         5.4643   -4.3185    4.0680 C.ar      1 <0>        -0.1182
     22 C22         5.9487   -5.5319    3.6135 C.ar      1 <0>        -0.1161
     23 C23         6.1810   -5.7283    2.2641 C.ar      1 <0>        -0.1202
     24 C24         5.9250   -4.7154    1.3625 C.ar      1 <0>        -0.1069
     25 H1         -0.9603    1.9042    0.0260 H         1 <0>         0.1214
     26 H2          1.1479    3.1721    0.0077 H         1 <0>         0.1232
     27 H3          3.3021    1.9847   -0.0191 H         1 <0>         0.1224
     28 H4          1.2183   -1.7603   -0.0193 H         1 <0>         0.1208
     29 H5         -0.9264   -0.5557    0.0082 H         1 <0>         0.1218
     30 H6          4.4929    0.4520   -1.6718 H         1 <0>         0.1271
     31 H7          6.6404   -0.7379   -1.7041 H         1 <0>         0.1283
     32 H8          7.0841   -2.5486   -0.1063 H         1 <0>         0.1271
     33 H9          2.9755   -0.1963    2.8970 H         1 <0>         0.1181
     34 H10         1.2605   -0.8237    4.5450 H         1 <0>         0.1211
     35 H11         0.2295   -3.0559    4.4650 H         1 <0>         0.1202
     36 H12         0.9061   -4.6721    2.7381 H         1 <0>         0.1211
     37 H13         2.6120   -4.0597    1.0749 H         1 <0>         0.1180
     38 H14         4.8321   -2.3493    3.5323 H         1 <0>         0.1209
     39 H15         5.2851   -4.1706    5.1227 H         1 <0>         0.1217
     40 H16         6.1466   -6.3288    4.3150 H         1 <0>         0.1214
     41 H17         6.5596   -6.6776    1.9150 H         1 <0>         0.1232
     42 H18         6.1025   -4.8714    0.3086 H         1 <0>         0.1224
@<TRIPOS>BOND
     1    1    6 ar
     2    1    2 ar
     3    1   25 1
     4    2    3 ar
     5    2   26 1
     6    3    4 ar
     7    3   27 1
     8    4    5 ar
     9    4    7 1
    10    5    6 ar
    11    5   28 1
    12    6   29 1
    13    7   12 ar
    14    7    8 ar
    15    8    9 ar
    16    8   30 1
    17    9   10 ar
    18    9   31 1
    19   10   11 ar
    20   10   32 1
    21   11   12 ar
    22   11   19 1
    23   12   13 1
    24   13   18 ar
    25   13   14 ar
    26   14   15 ar
    27   14   33 1
    28   15   16 ar
    29   15   34 1
    30   16   17 ar
    31   16   35 1
    32   17   18 ar
    33   17   36 1
    34   18   37 1
    35   19   24 ar
    36   19   20 ar
    37   20   21 ar
    38   20   38 1
    39   21   22 ar
    40   21   39 1
    41   22   23 ar
    42   22   40 1
    43   23   24 ar
    44   23   41 1
    45   24   42 1
