@<TRIPOS>MOLECULE
ZINC03123664
   51    54     0     0     0
SMALL
USER_CHARGES

@<TRIPOS>ATOM
      1 C1         -0.0184    1.5028    0.0103 C.3       1 <0>        -0.1176
      2 C2          0.0021   -0.0041    0.0020 C.ar      1 <0>        -0.0827
      3 C3          0.0057   -0.6865   -1.2011 C.ar      1 <0>        -0.1177
      4 C4          0.0249   -2.0666   -1.2145 C.ar      1 <0>        -0.1051
      5 C5          0.0405   -2.7722   -0.0132 C.ar      1 <0>        -0.0521
      6 C6          0.0368   -2.0797    1.1957 C.ar      1 <0>        -0.1051
      7 C7          0.0229   -0.6995    1.1975 C.ar      1 <0>        -0.1177
      8 C8          0.0607   -4.2562   -0.0214 C.ar      1 <0>        -0.0346
      9 C9          0.0697   -4.9455   -1.2307 C.ar      1 <0>        -0.1023
     10 C10         0.0886   -6.3374   -1.2384 C.ar      1 <0>        -0.0346
     11 C11         0.0989   -7.0399   -0.0367 C.ar      1 <0>        -0.1023
     12 C12         0.0908   -6.3506    1.1726 C.ar      1 <0>        -0.0346
     13 C13         0.0763   -4.9587    1.1803 C.ar      1 <0>        -0.1023
     14 C14         0.1013   -7.0997    2.4538 C.ar      1 <0>        -0.0521
     15 C15         0.1249   -8.4928    2.4491 C.ar      1 <0>        -0.1051
     16 C16         0.1345   -9.1844    3.6435 C.ar      1 <0>        -0.1177
     17 C17         0.1202   -8.4970    4.8437 C.ar      1 <0>        -0.0827
     18 C18         0.0967   -7.1140    4.8542 C.ar      1 <0>        -0.1177
     19 C19         0.0932   -6.4123    3.6657 C.ar      1 <0>        -0.1051
     20 C20         0.1298   -9.2576    6.1446 C.3       1 <0>        -0.1176
     21 C21         0.0972   -7.0723   -2.5278 C.ar      1 <0>        -0.0521
     22 C22         0.0922   -6.3716   -3.7320 C.ar      1 <0>        -0.1051
     23 C23         0.1002   -7.0601   -4.9282 C.ar      1 <0>        -0.1177
     24 C24         0.1127   -8.4432   -4.9329 C.ar      1 <0>        -0.0827
     25 C25         0.1177   -9.1439   -3.7403 C.ar      1 <0>        -0.1177
     26 C26         0.1161   -8.4654   -2.5384 C.ar      1 <0>        -0.1051
     27 C27         0.1204   -9.1894   -6.2422 C.3       1 <0>        -0.1176
     28 H1          1.0042    1.8801    0.0026 H         1 <0>         0.0720
     29 H2         -0.5455    1.8639   -0.8728 H         1 <0>         0.0674
     30 H3         -0.5286    1.8543    0.9071 H         1 <0>         0.0674
     31 H4         -0.0068   -0.1386   -2.1317 H         1 <0>         0.1248
     32 H5          0.0274   -2.5985   -2.1544 H         1 <0>         0.1245
     33 H6          0.0485   -2.6218    2.1298 H         1 <0>         0.1245
     34 H7          0.0244   -0.1616    2.1340 H         1 <0>         0.1248
     35 H8          0.0617   -4.4004   -2.1631 H         1 <0>         0.1294
     36 H9          0.1128   -8.1198   -0.0427 H         1 <0>         0.1294
     37 H10         0.0738   -4.4238    2.1185 H         1 <0>         0.1294
     38 H11         0.1354   -9.0304    1.5125 H         1 <0>         0.1245
     39 H12         0.1529  -10.2642    3.6409 H         1 <0>         0.1247
     40 H13         0.0853   -6.5823    5.7942 H         1 <0>         0.1247
     41 H14         0.0797   -5.3324    3.6750 H         1 <0>         0.1245
     42 H15         1.1596   -9.4239    6.4607 H         1 <0>         0.0721
     43 H16        -0.3955   -8.6814    6.9063 H         1 <0>         0.0674
     44 H17        -0.3678  -10.2177    6.0078 H         1 <0>         0.0674
     45 H18         0.0817   -5.2916   -3.7294 H         1 <0>         0.1245
     46 H19         0.0963   -6.5179   -5.8622 H         1 <0>         0.1247
     47 H20         0.1272  -10.2238   -3.7497 H         1 <0>         0.1248
     48 H21         0.1249   -9.0134   -1.6078 H         1 <0>         0.1245
     49 H22         1.1499   -9.3601   -6.5571 H         1 <0>         0.0721
     50 H23        -0.3848  -10.1472   -6.1174 H         1 <0>         0.0674
     51 H24        -0.3982   -8.6009   -6.9989 H         1 <0>         0.0674
@<TRIPOS>BOND
     1    1    2 1
     2    1   28 1
     3    1   29 1
     4    1   30 1
     5    2    7 ar
     6    2    3 ar
     7    3    4 ar
     8    3   31 1
     9    4    5 ar
    10    4   32 1
    11    5    6 ar
    12    5    8 1
    13    6    7 ar
    14    6   33 1
    15    7   34 1
    16    8   13 ar
    17    8    9 ar
    18    9   10 ar
    19    9   35 1
    20   10   11 ar
    21   10   21 1
    22   11   12 ar
    23   11   36 1
    24   12   13 ar
    25   12   14 1
    26   13   37 1
    27   14   19 ar
    28   14   15 ar
    29   15   16 ar
    30   15   38 1
    31   16   17 ar
    32   16   39 1
    33   17   18 ar
    34   17   20 1
    35   18   19 ar
    36   18   40 1
    37   19   41 1
    38   20   42 1
    39   20   43 1
    40   20   44 1
    41   21   26 ar
    42   21   22 ar
    43   22   23 ar
    44   22   45 1
    45   23   24 ar
    46   23   46 1
    47   24   25 ar
    48   24   27 1
    49   25   26 ar
    50   25   47 1
    51   26   48 1
    52   27   49 1
    53   27   50 1
    54   27   51 1
