REMARK  3 active torsions:
REMARK  status: ('A' for Active; 'I' for Inactive)
REMARK    1  A    between atoms: C5_5  and  C8_8 
REMARK    2  A    between atoms: C10_10  and  C21_21 
REMARK    3  A    between atoms: C12_12  and  C14_14 
ROOT
HETATM    1  C8  <0>     1       0.033   3.398   6.062  1.00  0.00    -0.024 A 
HETATM    2  C9  <0>     1      -0.572   3.300   4.812  1.00  0.00     0.024 A 
HETATM    3  C10 <0>     1      -1.197   2.116   4.432  1.00  0.00    -0.024 A 
HETATM    4  C11 <0>     1      -1.218   1.030   5.302  1.00  0.00     0.024 A 
HETATM    5  C12 <0>     1      -0.612   1.127   6.551  1.00  0.00    -0.024 A 
HETATM    6  C13 <0>     1       0.018   2.309   6.930  1.00  0.00     0.024 A 
ENDROOT
BRANCH   1   7
HETATM    7  C5  <0>     1       0.700   4.660   6.467  1.00  0.00    -0.026 A 
HETATM    8  C4  <0>     1       0.718   5.751   5.601  1.00  0.00     0.013 A 
HETATM    9  C3  <0>     1       1.339   6.923   5.983  1.00  0.00     0.007 A 
HETATM   10  C2  <0>     1       1.944   7.015   7.224  1.00  0.00    -0.062 A 
HETATM   11  C1  <0>     1       2.621   8.297   7.635  1.00  0.00     0.048 C 
HETATM   12  C7  <0>     1       1.935   5.933   8.086  1.00  0.00     0.007 A 
HETATM   13  C6  <0>     1       1.311   4.758   7.716  1.00  0.00     0.013 A 
ENDBRANCH   1   7
BRANCH   5  14
HETATM   14  C14 <0>     1      -0.634  -0.032   7.479  1.00  0.00    -0.026 A 
HETATM   15  C15 <0>     1      -1.255  -1.220   7.099  1.00  0.00     0.013 A 
HETATM   16  C16 <0>     1      -1.273  -2.294   7.965  1.00  0.00     0.007 A 
HETATM   17  C17 <0>     1      -0.676  -2.193   9.209  1.00  0.00    -0.062 A 
HETATM   18  C18 <0>     1      -0.057  -1.016   9.591  1.00  0.00     0.007 A 
HETATM   19  C20 <0>     1      -0.699  -3.369  10.151  1.00  0.00     0.048 C 
HETATM   20  C19 <0>     1      -0.028   0.062   8.730  1.00  0.00     0.013 A 
ENDBRANCH   5  14
BRANCH   3  21
HETATM   21  C21 <0>     1      -1.843   2.013   3.100  1.00  0.00    -0.026 A 
HETATM   22  C26 <0>     1      -2.470   0.829   2.717  1.00  0.00     0.013 A 
HETATM   23  C25 <0>     1      -3.075   0.741   1.479  1.00  0.00     0.007 A 
HETATM   24  C24 <0>     1      -3.049   1.820   0.615  1.00  0.00    -0.062 A 
HETATM   25  C23 <0>     1      -2.422   2.996   0.988  1.00  0.00     0.007 A 
HETATM   26  C27 <0>     1      -3.705   1.716  -0.737  1.00  0.00     0.048 C 
HETATM   27  C22 <0>     1      -1.820   3.097   2.226  1.00  0.00     0.013 A 
ENDBRANCH   3  21
TORSDOF 3
