MODEL 1
REMARK VINA RESULT:      -8.8      0.000      0.000
REMARK  3 active torsions:
REMARK  status: ('A' for Active; 'I' for Inactive)
REMARK    1  A    between atoms: C5_5  and  C8_8 
REMARK    2  A    between atoms: C10_10  and  C21_21 
REMARK    3  A    between atoms: C12_12  and  C14_14 
ROOT
HETATM    1  C8  <0>     1      33.245  14.320 -23.660  1.00  0.00    -0.024 A 
HETATM    2  C9  <0>     1      34.281  13.509 -24.116  1.00  0.00     0.024 A 
HETATM    3  C10 <0>     1      35.270  13.081 -23.235  1.00  0.00    -0.024 A 
HETATM    4  C11 <0>     1      35.223  13.463 -21.898  1.00  0.00     0.024 A 
HETATM    5  C12 <0>     1      34.189  14.275 -21.442  1.00  0.00    -0.024 A 
HETATM    6  C13 <0>     1      33.202  14.708 -22.324  1.00  0.00     0.024 A 
ENDROOT
BRANCH   1   7
HETATM    7  C5  <0>     1      32.191  14.776 -24.600  1.00  0.00    -0.026 A 
HETATM    8  C4  <0>     1      31.296  13.860 -25.146  1.00  0.00     0.013 A 
HETATM    9  C3  <0>     1      30.317  14.290 -26.018  1.00  0.00     0.007 A 
HETATM   10  C2  <0>     1      30.224  15.630 -26.352  1.00  0.00    -0.062 A 
HETATM   11  C1  <0>     1      29.154  16.093 -27.305  1.00  0.00     0.048 C 
HETATM   12  C7  <0>     1      31.115  16.544 -25.817  1.00  0.00     0.007 A 
HETATM   13  C6  <0>     1      32.094  16.125 -24.939  1.00  0.00     0.013 A 
ENDBRANCH   1   7
BRANCH   5  14
HETATM   14  C14 <0>     1      34.139  14.683 -20.015  1.00  0.00    -0.026 A 
HETATM   15  C15 <0>     1      34.840  15.808 -19.585  1.00  0.00     0.013 A 
HETATM   16  C16 <0>     1      34.790  16.183 -18.258  1.00  0.00     0.007 A 
HETATM   17  C17 <0>     1      34.047  15.444 -17.355  1.00  0.00    -0.062 A 
HETATM   18  C18 <0>     1      33.349  14.327 -17.777  1.00  0.00     0.007 A 
HETATM   19  C20 <0>     1      33.997  15.858 -15.907  1.00  0.00     0.048 C 
HETATM   20  C19 <0>     1      33.386  13.947 -19.103  1.00  0.00     0.013 A 
ENDBRANCH   5  14
BRANCH   3  21
HETATM   21  C21 <0>     1      36.373  12.216 -23.722  1.00  0.00    -0.026 A 
HETATM   22  C26 <0>     1      37.527  12.787 -24.254  1.00  0.00     0.013 A 
HETATM   23  C25 <0>     1      38.553  11.977 -24.699  1.00  0.00     0.007 A 
HETATM   24  C24 <0>     1      38.431  10.602 -24.630  1.00  0.00    -0.062 A 
HETATM   25  C23 <0>     1      37.284  10.029 -24.109  1.00  0.00     0.007 A 
HETATM   26  C27 <0>     1      39.551   9.723 -25.124  1.00  0.00     0.048 C 
HETATM   27  C22 <0>     1      36.256  10.830 -23.655  1.00  0.00     0.013 A 
ENDBRANCH   3  21
TORSDOF 3
ENDMDL
MODEL 2
REMARK VINA RESULT:      -8.7      0.026      6.275
REMARK  3 active torsions:
REMARK  status: ('A' for Active; 'I' for Inactive)
REMARK    1  A    between atoms: C5_5  and  C8_8 
REMARK    2  A    between atoms: C10_10  and  C21_21 
REMARK    3  A    between atoms: C12_12  and  C14_14 
ROOT
HETATM    1  C8  <0>     1      35.253  13.076 -23.235  1.00  0.00    -0.024 A 
HETATM    2  C9  <0>     1      34.266  13.507 -24.118  1.00  0.00     0.024 A 
HETATM    3  C10 <0>     1      33.234  14.323 -23.664  1.00  0.00    -0.024 A 
HETATM    4  C11 <0>     1      33.189  14.709 -22.328  1.00  0.00     0.024 A 
HETATM    5  C12 <0>     1      34.173  14.277 -21.444  1.00  0.00    -0.024 A 
HETATM    6  C13 <0>     1      35.203  13.456 -21.896  1.00  0.00     0.024 A 
ENDROOT
BRANCH   1   7
HETATM    7  C5  <0>     1      36.353  12.205 -23.718  1.00  0.00    -0.026 A 
HETATM    8  C4  <0>     1      37.500  12.769 -24.270  1.00  0.00     0.013 A 
HETATM    9  C3  <0>     1      38.521  11.955 -24.718  1.00  0.00     0.007 A 
HETATM   10  C2  <0>     1      38.405  10.580 -24.619  1.00  0.00    -0.062 A 
HETATM   11  C1  <0>     1      39.523   9.696 -25.109  1.00  0.00     0.048 C 
HETATM   12  C7  <0>     1      37.265  10.013 -24.077  1.00  0.00     0.007 A 
HETATM   13  C6  <0>     1      36.241  10.819 -23.621  1.00  0.00     0.013 A 
ENDBRANCH   1   7
BRANCH   5  14
HETATM   14  C14 <0>     1      34.124  14.688 -20.019  1.00  0.00    -0.026 A 
HETATM   15  C15 <0>     1      34.841  15.802 -19.587  1.00  0.00     0.013 A 
HETATM   16  C16 <0>     1      34.792  16.180 -18.261  1.00  0.00     0.007 A 
HETATM   17  C17 <0>     1      34.033  15.455 -17.360  1.00  0.00    -0.062 A 
HETATM   18  C18 <0>     1      33.318  14.349 -17.783  1.00  0.00     0.007 A 
HETATM   19  C20 <0>     1      33.983  15.872 -15.913  1.00  0.00     0.048 C 
HETATM   20  C19 <0>     1      33.355  13.966 -19.108  1.00  0.00     0.013 A 
ENDBRANCH   5  14
BRANCH   3  21
HETATM   21  C21 <0>     1      32.185  14.784 -24.606  1.00  0.00    -0.026 A 
HETATM   22  C26 <0>     1      31.284  13.870 -25.150  1.00  0.00     0.013 A 
HETATM   23  C25 <0>     1      30.305  14.305 -26.021  1.00  0.00     0.007 A 
HETATM   24  C24 <0>     1      30.225  15.642 -26.365  1.00  0.00    -0.062 A 
HETATM   25  C23 <0>     1      31.121  16.552 -25.833  1.00  0.00     0.007 A 
HETATM   26  C27 <0>     1      29.159  16.110 -27.321  1.00  0.00     0.048 C 
HETATM   27  C22 <0>     1      32.099  16.129 -24.955  1.00  0.00     0.013 A 
ENDBRANCH   3  21
TORSDOF 3
ENDMDL
MODEL 3
REMARK VINA RESULT:      -8.7      0.027      6.213
REMARK  3 active torsions:
REMARK  status: ('A' for Active; 'I' for Inactive)
REMARK    1  A    between atoms: C5_5  and  C8_8 
REMARK    2  A    between atoms: C10_10  and  C21_21 
REMARK    3  A    between atoms: C12_12  and  C14_14 
ROOT
HETATM    1  C8  <0>     1      33.238  14.312 -23.663  1.00  0.00    -0.024 A 
HETATM    2  C9  <0>     1      33.195  14.697 -22.326  1.00  0.00     0.024 A 
HETATM    3  C10 <0>     1      34.181  14.263 -21.444  1.00  0.00    -0.024 A 
HETATM    4  C11 <0>     1      35.211  13.445 -21.900  1.00  0.00     0.024 A 
HETATM    5  C12 <0>     1      35.254  13.060 -23.237  1.00  0.00    -0.024 A 
HETATM    6  C13 <0>     1      34.265  13.489 -24.118  1.00  0.00     0.024 A 
ENDROOT
BRANCH   1   7
HETATM    7  C5  <0>     1      32.187  14.774 -24.603  1.00  0.00    -0.026 A 
HETATM    8  C4  <0>     1      31.281  13.864 -25.142  1.00  0.00     0.013 A 
HETATM    9  C3  <0>     1      30.304  14.299 -26.015  1.00  0.00     0.007 A 
HETATM   10  C2  <0>     1      30.225  15.637 -26.356  1.00  0.00    -0.062 A 
HETATM   11  C1  <0>     1      29.157  16.106 -27.310  1.00  0.00     0.048 C 
HETATM   12  C7  <0>     1      31.126  16.546 -25.829  1.00  0.00     0.007 A 
HETATM   13  C6  <0>     1      32.103  16.122 -24.950  1.00  0.00     0.013 A 
ENDBRANCH   1   7
BRANCH   5  14
HETATM   14  C14 <0>     1      36.352  12.187 -23.723  1.00  0.00    -0.026 A 
HETATM   15  C15 <0>     1      36.225  10.801 -23.658  1.00  0.00     0.013 A 
HETATM   16  C16 <0>     1      37.249   9.995 -24.111  1.00  0.00     0.007 A 
HETATM   17  C17 <0>     1      38.401  10.560 -24.628  1.00  0.00    -0.062 A 
HETATM   18  C18 <0>     1      38.532  11.935 -24.695  1.00  0.00     0.007 A 
HETATM   19  C20 <0>     1      39.516   9.674 -25.120  1.00  0.00     0.048 C 
HETATM   20  C19 <0>     1      37.512  12.751 -24.251  1.00  0.00     0.013 A 
ENDBRANCH   5  14
BRANCH   3  21
HETATM   21  C21 <0>     1      34.134  14.674 -20.019  1.00  0.00    -0.026 A 
HETATM   22  C26 <0>     1      34.847  15.792 -19.591  1.00  0.00     0.013 A 
HETATM   23  C25 <0>     1      34.795  16.174 -18.265  1.00  0.00     0.007 A 
HETATM   24  C24 <0>     1      34.048  15.443 -17.361  1.00  0.00    -0.062 A 
HETATM   25  C23 <0>     1      33.343  14.328 -17.780  1.00  0.00     0.007 A 
HETATM   26  C27 <0>     1      34.000  15.860 -15.914  1.00  0.00     0.048 C 
HETATM   27  C22 <0>     1      33.383  13.941 -19.104  1.00  0.00     0.013 A 
ENDBRANCH   3  21
TORSDOF 3
ENDMDL
MODEL 4
REMARK VINA RESULT:      -8.7      0.019      7.584
REMARK  3 active torsions:
REMARK  status: ('A' for Active; 'I' for Inactive)
REMARK    1  A    between atoms: C5_5  and  C8_8 
REMARK    2  A    between atoms: C10_10  and  C21_21 
REMARK    3  A    between atoms: C12_12  and  C14_14 
ROOT
HETATM    1  C8  <0>     1      35.263  13.090 -23.232  1.00  0.00    -0.024 A 
HETATM    2  C9  <0>     1      35.215  13.475 -21.895  1.00  0.00     0.024 A 
HETATM    3  C10 <0>     1      34.181  14.288 -21.441  1.00  0.00    -0.024 A 
HETATM    4  C11 <0>     1      33.194  14.716 -22.324  1.00  0.00     0.024 A 
HETATM    5  C12 <0>     1      33.242  14.333 -23.661  1.00  0.00    -0.024 A 
HETATM    6  C13 <0>     1      34.279  13.524 -24.117  1.00  0.00     0.024 A 
ENDROOT
BRANCH   1   7
HETATM    7  C5  <0>     1      36.366  12.224 -23.716  1.00  0.00    -0.026 A 
HETATM    8  C4  <0>     1      36.259  10.838 -23.623  1.00  0.00     0.013 A 
HETATM    9  C3  <0>     1      37.287  10.036 -24.076  1.00  0.00     0.007 A 
HETATM   10  C2  <0>     1      38.424  10.607 -24.621  1.00  0.00    -0.062 A 
HETATM   11  C1  <0>     1      39.544   9.727 -25.112  1.00  0.00     0.048 C 
HETATM   12  C7  <0>     1      38.538  11.983 -24.710  1.00  0.00     0.007 A 
HETATM   13  C6  <0>     1      37.513  12.794 -24.266  1.00  0.00     0.013 A 
ENDBRANCH   1   7
BRANCH   5  14
HETATM   14  C14 <0>     1      32.189  14.790 -24.603  1.00  0.00    -0.026 A 
HETATM   15  C15 <0>     1      31.282  13.876 -25.135  1.00  0.00     0.013 A 
HETATM   16  C16 <0>     1      30.306  14.306 -26.010  1.00  0.00     0.007 A 
HETATM   17  C17 <0>     1      30.226  15.642 -26.360  1.00  0.00    -0.062 A 
HETATM   18  C18 <0>     1      31.123  16.554 -25.834  1.00  0.00     0.007 A 
HETATM   19  C20 <0>     1      29.158  16.105 -27.317  1.00  0.00     0.048 C 
HETATM   20  C19 <0>     1      32.100  16.136 -24.953  1.00  0.00     0.013 A 
ENDBRANCH   5  14
BRANCH   3  21
HETATM   21  C21 <0>     1      34.130  14.697 -20.016  1.00  0.00    -0.026 A 
HETATM   22  C26 <0>     1      34.842  15.813 -19.583  1.00  0.00     0.013 A 
HETATM   23  C25 <0>     1      34.786  16.192 -18.256  1.00  0.00     0.007 A 
HETATM   24  C24 <0>     1      34.035  15.460 -17.356  1.00  0.00    -0.062 A 
HETATM   25  C23 <0>     1      33.330  14.347 -17.780  1.00  0.00     0.007 A 
HETATM   26  C27 <0>     1      33.982  15.875 -15.908  1.00  0.00     0.048 C 
HETATM   27  C22 <0>     1      33.374  13.963 -19.105  1.00  0.00     0.013 A 
ENDBRANCH   3  21
TORSDOF 3
ENDMDL
MODEL 5
REMARK VINA RESULT:      -8.7      0.028      6.275
REMARK  3 active torsions:
REMARK  status: ('A' for Active; 'I' for Inactive)
REMARK    1  A    between atoms: C5_5  and  C8_8 
REMARK    2  A    between atoms: C10_10  and  C21_21 
REMARK    3  A    between atoms: C12_12  and  C14_14 
ROOT
HETATM    1  C8  <0>     1      34.176  14.286 -21.451  1.00  0.00    -0.024 A 
HETATM    2  C9  <0>     1      35.210  13.472 -21.905  1.00  0.00     0.024 A 
HETATM    3  C10 <0>     1      35.259  13.090 -23.242  1.00  0.00    -0.024 A 
HETATM    4  C11 <0>     1      34.275  13.522 -24.126  1.00  0.00     0.024 A 
HETATM    5  C12 <0>     1      33.240  14.334 -23.672  1.00  0.00    -0.024 A 
HETATM    6  C13 <0>     1      33.187  14.713 -22.334  1.00  0.00     0.024 A 
ENDROOT
BRANCH   1   7
HETATM    7  C5  <0>     1      34.123  14.693 -20.025  1.00  0.00    -0.026 A 
HETATM    8  C4  <0>     1      34.857  15.791 -19.583  1.00  0.00     0.013 A 
HETATM    9  C3  <0>     1      34.804  16.166 -18.256  1.00  0.00     0.007 A 
HETATM   10  C2  <0>     1      34.023  15.453 -17.364  1.00  0.00    -0.062 A 
HETATM   11  C1  <0>     1      33.969  15.867 -15.916  1.00  0.00     0.048 C 
HETATM   12  C7  <0>     1      33.296  14.357 -17.795  1.00  0.00     0.007 A 
HETATM   13  C6  <0>     1      33.338  13.978 -19.122  1.00  0.00     0.013 A 
ENDBRANCH   1   7
BRANCH   5  14
HETATM   14  C14 <0>     1      32.189  14.795 -24.615  1.00  0.00    -0.026 A 
HETATM   15  C15 <0>     1      31.282  13.883 -25.150  1.00  0.00     0.013 A 
HETATM   16  C16 <0>     1      30.308  14.315 -26.026  1.00  0.00     0.007 A 
HETATM   17  C17 <0>     1      30.231  15.652 -26.374  1.00  0.00    -0.062 A 
HETATM   18  C18 <0>     1      31.128  16.562 -25.845  1.00  0.00     0.007 A 
HETATM   19  C20 <0>     1      29.165  16.119 -27.331  1.00  0.00     0.048 C 
HETATM   20  C19 <0>     1      32.103  16.141 -24.963  1.00  0.00     0.013 A 
ENDBRANCH   5  14
BRANCH   3  21
HETATM   21  C21 <0>     1      36.363  12.224 -23.726  1.00  0.00    -0.026 A 
HETATM   22  C26 <0>     1      37.514  12.795 -24.265  1.00  0.00     0.013 A 
HETATM   23  C25 <0>     1      38.541  11.984 -24.708  1.00  0.00     0.007 A 
HETATM   24  C24 <0>     1      38.423  10.609 -24.628  1.00  0.00    -0.062 A 
HETATM   25  C23 <0>     1      37.280  10.037 -24.098  1.00  0.00     0.007 A 
HETATM   26  C27 <0>     1      39.544   9.729 -25.118  1.00  0.00     0.048 C 
HETATM   27  C22 <0>     1      36.250  10.838 -23.647  1.00  0.00     0.013 A 
ENDBRANCH   3  21
TORSDOF 3
ENDMDL
MODEL 6
REMARK VINA RESULT:      -8.7      0.028      7.635
REMARK  3 active torsions:
REMARK  status: ('A' for Active; 'I' for Inactive)
REMARK    1  A    between atoms: C5_5  and  C8_8 
REMARK    2  A    between atoms: C10_10  and  C21_21 
REMARK    3  A    between atoms: C12_12  and  C14_14 
ROOT
HETATM    1  C8  <0>     1      34.174  14.287 -21.452  1.00  0.00    -0.024 A 
HETATM    2  C9  <0>     1      33.189  14.718 -22.335  1.00  0.00     0.024 A 
HETATM    3  C10 <0>     1      33.238  14.337 -23.673  1.00  0.00    -0.024 A 
HETATM    4  C11 <0>     1      34.272  13.524 -24.127  1.00  0.00     0.024 A 
HETATM    5  C12 <0>     1      35.258  13.094 -23.245  1.00  0.00    -0.024 A 
HETATM    6  C13 <0>     1      35.213  13.479 -21.908  1.00  0.00     0.024 A 
ENDROOT
BRANCH   1   7
HETATM    7  C5  <0>     1      34.122  14.693 -20.026  1.00  0.00    -0.026 A 
HETATM    8  C4  <0>     1      34.856  15.792 -19.584  1.00  0.00     0.013 A 
HETATM    9  C3  <0>     1      34.803  16.166 -18.257  1.00  0.00     0.007 A 
HETATM   10  C2  <0>     1      34.023  15.452 -17.365  1.00  0.00    -0.062 A 
HETATM   11  C1  <0>     1      33.971  15.866 -15.916  1.00  0.00     0.048 C 
HETATM   12  C7  <0>     1      33.297  14.356 -17.796  1.00  0.00     0.007 A 
HETATM   13  C6  <0>     1      33.338  13.977 -19.123  1.00  0.00     0.013 A 
ENDBRANCH   1   7
BRANCH   5  14
HETATM   14  C14 <0>     1      36.362  12.227 -23.730  1.00  0.00    -0.026 A 
HETATM   15  C15 <0>     1      36.246  10.841 -23.654  1.00  0.00     0.013 A 
HETATM   16  C16 <0>     1      37.275  10.040 -24.106  1.00  0.00     0.007 A 
HETATM   17  C17 <0>     1      38.420  10.610 -24.633  1.00  0.00    -0.062 A 
HETATM   18  C18 <0>     1      38.539  11.987 -24.711  1.00  0.00     0.007 A 
HETATM   19  C20 <0>     1      39.540   9.730 -25.124  1.00  0.00     0.048 C 
HETATM   20  C19 <0>     1      37.514  12.797 -24.268  1.00  0.00     0.013 A 
ENDBRANCH   5  14
BRANCH   3  21
HETATM   21  C21 <0>     1      32.186  14.796 -24.614  1.00  0.00    -0.026 A 
HETATM   22  C26 <0>     1      32.092  16.144 -24.953  1.00  0.00     0.013 A 
HETATM   23  C25 <0>     1      31.115  16.565 -25.834  1.00  0.00     0.007 A 
HETATM   24  C24 <0>     1      30.224  15.653 -26.370  1.00  0.00    -0.062 A 
HETATM   25  C23 <0>     1      30.309  14.314 -26.031  1.00  0.00     0.007 A 
HETATM   26  C27 <0>     1      29.157  16.119 -27.325  1.00  0.00     0.048 C 
HETATM   27  C22 <0>     1      31.286  13.882 -25.157  1.00  0.00     0.013 A 
ENDBRANCH   3  21
TORSDOF 3
ENDMDL
MODEL 7
REMARK VINA RESULT:      -8.6      2.023      6.314
REMARK  3 active torsions:
REMARK  status: ('A' for Active; 'I' for Inactive)
REMARK    1  A    between atoms: C5_5  and  C8_8 
REMARK    2  A    between atoms: C10_10  and  C21_21 
REMARK    3  A    between atoms: C12_12  and  C14_14 
ROOT
HETATM    1  C8  <0>     1      35.928  15.451 -23.625  1.00  0.00    -0.024 A 
HETATM    2  C9  <0>     1      34.844  15.506 -24.497  1.00  0.00     0.024 A 
HETATM    3  C10 <0>     1      33.546  15.472 -23.997  1.00  0.00    -0.024 A 
HETATM    4  C11 <0>     1      33.331  15.385 -22.625  1.00  0.00     0.024 A 
HETATM    5  C12 <0>     1      34.413  15.328 -21.753  1.00  0.00    -0.024 A 
HETATM    6  C13 <0>     1      35.713  15.356 -22.252  1.00  0.00     0.024 A 
ENDROOT
BRANCH   1   7
HETATM    7  C5  <0>     1      37.312  15.486 -24.157  1.00  0.00    -0.026 A 
HETATM    8  C4  <0>     1      38.079  14.323 -24.191  1.00  0.00     0.013 A 
HETATM    9  C3  <0>     1      39.366  14.360 -24.689  1.00  0.00     0.007 A 
HETATM   10  C2  <0>     1      39.895  15.551 -25.153  1.00  0.00    -0.062 A 
HETATM   11  C1  <0>     1      41.301  15.586 -25.694  1.00  0.00     0.048 C 
HETATM   12  C7  <0>     1      39.142  16.711 -25.116  1.00  0.00     0.007 A 
HETATM   13  C6  <0>     1      37.851  16.683 -24.626  1.00  0.00     0.013 A 
ENDBRANCH   1   7
BRANCH   5  14
HETATM   14  C14 <0>     1      34.183  15.234 -20.289  1.00  0.00    -0.026 A 
HETATM   15  C15 <0>     1      34.851  16.094 -19.420  1.00  0.00     0.013 A 
HETATM   16  C16 <0>     1      34.635  16.003 -18.060  1.00  0.00     0.007 A 
HETATM   17  C17 <0>     1      33.756  15.059 -17.559  1.00  0.00    -0.062 A 
HETATM   18  C18 <0>     1      33.089  14.203 -18.418  1.00  0.00     0.007 A 
HETATM   19  C20 <0>     1      33.523  14.963 -16.074  1.00  0.00     0.048 C 
HETATM   20  C19 <0>     1      33.294  14.290 -19.780  1.00  0.00     0.013 A 
ENDBRANCH   5  14
BRANCH   3  21
HETATM   21  C21 <0>     1      32.392  15.532 -24.928  1.00  0.00    -0.026 A 
HETATM   22  C26 <0>     1      31.500  14.464 -25.006  1.00  0.00     0.013 A 
HETATM   23  C25 <0>     1      30.424  14.528 -25.869  1.00  0.00     0.007 A 
HETATM   24  C24 <0>     1      30.237  15.644 -26.664  1.00  0.00    -0.062 A 
HETATM   25  C23 <0>     1      31.123  16.705 -26.595  1.00  0.00     0.007 A 
HETATM   26  C27 <0>     1      29.065  15.706 -27.608  1.00  0.00     0.048 C 
HETATM   27  C22 <0>     1      32.198  16.654 -25.731  1.00  0.00     0.013 A 
ENDBRANCH   3  21
TORSDOF 3
ENDMDL
MODEL 8
REMARK VINA RESULT:      -8.6      2.027      7.715
REMARK  3 active torsions:
REMARK  status: ('A' for Active; 'I' for Inactive)
REMARK    1  A    between atoms: C5_5  and  C8_8 
REMARK    2  A    between atoms: C10_10  and  C21_21 
REMARK    3  A    between atoms: C12_12  and  C14_14 
ROOT
HETATM    1  C8  <0>     1      35.914  15.458 -23.594  1.00  0.00    -0.024 A 
HETATM    2  C9  <0>     1      35.699  15.372 -22.221  1.00  0.00     0.024 A 
HETATM    3  C10 <0>     1      34.401  15.337 -21.721  1.00  0.00    -0.024 A 
HETATM    4  C11 <0>     1      33.317  15.389 -22.593  1.00  0.00     0.024 A 
HETATM    5  C12 <0>     1      33.532  15.477 -23.965  1.00  0.00    -0.024 A 
HETATM    6  C13 <0>     1      34.830  15.517 -24.466  1.00  0.00     0.024 A 
ENDROOT
BRANCH   1   7
HETATM    7  C5  <0>     1      37.298  15.496 -24.127  1.00  0.00    -0.026 A 
HETATM    8  C4  <0>     1      37.831  16.690 -24.608  1.00  0.00     0.013 A 
HETATM    9  C3  <0>     1      39.119  16.720 -25.102  1.00  0.00     0.007 A 
HETATM   10  C2  <0>     1      39.881  15.565 -25.122  1.00  0.00    -0.062 A 
HETATM   11  C1  <0>     1      41.287  15.604 -25.663  1.00  0.00     0.048 C 
HETATM   12  C7  <0>     1      39.356  14.375 -24.652  1.00  0.00     0.007 A 
HETATM   13  C6  <0>     1      38.070  14.336 -24.150  1.00  0.00     0.013 A 
ENDBRANCH   1   7
BRANCH   5  14
HETATM   14  C14 <0>     1      32.376  15.532 -24.896  1.00  0.00    -0.026 A 
HETATM   15  C15 <0>     1      32.169  16.659 -25.688  1.00  0.00     0.013 A 
HETATM   16  C16 <0>     1      31.094  16.706 -26.550  1.00  0.00     0.007 A 
HETATM   17  C17 <0>     1      30.221  15.635 -26.630  1.00  0.00    -0.062 A 
HETATM   18  C18 <0>     1      30.422  14.513 -25.847  1.00  0.00     0.007 A 
HETATM   19  C20 <0>     1      29.047  15.692 -27.574  1.00  0.00     0.048 C 
HETATM   20  C19 <0>     1      31.498  14.454 -24.985  1.00  0.00     0.013 A 
ENDBRANCH   5  14
BRANCH   3  21
HETATM   21  C21 <0>     1      34.172  15.244 -20.258  1.00  0.00    -0.026 A 
HETATM   22  C26 <0>     1      33.281  14.301 -19.749  1.00  0.00     0.013 A 
HETATM   23  C25 <0>     1      33.077  14.214 -18.386  1.00  0.00     0.007 A 
HETATM   24  C24 <0>     1      33.745  15.068 -17.528  1.00  0.00    -0.062 A 
HETATM   25  C23 <0>     1      34.627  16.010 -18.029  1.00  0.00     0.007 A 
HETATM   26  C27 <0>     1      33.514  14.972 -16.042  1.00  0.00     0.048 C 
HETATM   27  C22 <0>     1      34.843  16.101 -19.389  1.00  0.00     0.013 A 
ENDBRANCH   3  21
TORSDOF 3
ENDMDL
MODEL 9
REMARK VINA RESULT:      -8.6      2.024      6.775
REMARK  3 active torsions:
REMARK  status: ('A' for Active; 'I' for Inactive)
REMARK    1  A    between atoms: C5_5  and  C8_8 
REMARK    2  A    between atoms: C10_10  and  C21_21 
REMARK    3  A    between atoms: C12_12  and  C14_14 
ROOT
HETATM    1  C8  <0>     1      34.404  15.337 -21.733  1.00  0.00    -0.024 A 
HETATM    2  C9  <0>     1      35.703  15.372 -22.235  1.00  0.00     0.024 A 
HETATM    3  C10 <0>     1      35.916  15.456 -23.607  1.00  0.00    -0.024 A 
HETATM    4  C11 <0>     1      34.832  15.507 -24.478  1.00  0.00     0.024 A 
HETATM    5  C12 <0>     1      33.534  15.471 -23.977  1.00  0.00    -0.024 A 
HETATM    6  C13 <0>     1      33.319  15.382 -22.605  1.00  0.00     0.024 A 
ENDROOT
BRANCH   1   7
HETATM    7  C5  <0>     1      34.177  15.247 -20.269  1.00  0.00    -0.026 A 
HETATM    8  C4  <0>     1      34.847  16.106 -19.402  1.00  0.00     0.013 A 
HETATM    9  C3  <0>     1      34.631  16.018 -18.042  1.00  0.00     0.007 A 
HETATM   10  C2  <0>     1      33.750  15.077 -17.539  1.00  0.00    -0.062 A 
HETATM   11  C1  <0>     1      33.519  14.985 -16.053  1.00  0.00     0.048 C 
HETATM   12  C7  <0>     1      33.086  14.216 -18.394  1.00  0.00     0.007 A 
HETATM   13  C6  <0>     1      33.290  14.300 -19.758  1.00  0.00     0.013 A 
ENDBRANCH   1   7
BRANCH   5  14
HETATM   14  C14 <0>     1      32.378  15.525 -24.907  1.00  0.00    -0.026 A 
HETATM   15  C15 <0>     1      31.500  14.447 -24.994  1.00  0.00     0.013 A 
HETATM   16  C16 <0>     1      30.427  14.501 -25.859  1.00  0.00     0.007 A 
HETATM   17  C17 <0>     1      30.221  15.625 -26.640  1.00  0.00    -0.062 A 
HETATM   18  C18 <0>     1      31.089  16.700 -26.557  1.00  0.00     0.007 A 
HETATM   19  C20 <0>     1      29.048  15.679 -27.584  1.00  0.00     0.048 C 
HETATM   20  C19 <0>     1      32.162  16.657 -25.690  1.00  0.00     0.013 A 
ENDBRANCH   5  14
BRANCH   3  21
HETATM   21  C21 <0>     1      37.300  15.495 -24.141  1.00  0.00    -0.026 A 
HETATM   22  C26 <0>     1      37.839  16.695 -24.601  1.00  0.00     0.013 A 
HETATM   23  C25 <0>     1      39.129  16.726 -25.091  1.00  0.00     0.007 A 
HETATM   24  C24 <0>     1      39.883  15.567 -25.138  1.00  0.00    -0.062 A 
HETATM   25  C23 <0>     1      39.350  14.372 -24.688  1.00  0.00     0.007 A 
HETATM   26  C27 <0>     1      41.288  15.606 -25.679  1.00  0.00     0.048 C 
HETATM   27  C22 <0>     1      38.063  14.331 -24.190  1.00  0.00     0.013 A 
ENDBRANCH   3  21
TORSDOF 3
ENDMDL
MODEL 10
REMARK VINA RESULT:      -8.5      2.921      6.643
REMARK  3 active torsions:
REMARK  status: ('A' for Active; 'I' for Inactive)
REMARK    1  A    between atoms: C5_5  and  C8_8 
REMARK    2  A    between atoms: C10_10  and  C21_21 
REMARK    3  A    between atoms: C12_12  and  C14_14 
ROOT
HETATM    1  C8  <0>     1      35.587  16.476 -24.252  1.00  0.00    -0.024 A 
HETATM    2  C9  <0>     1      34.505  16.479 -25.128  1.00  0.00     0.024 A 
HETATM    3  C10 <0>     1      33.234  16.155 -24.664  1.00  0.00    -0.024 A 
HETATM    4  C11 <0>     1      33.043  15.830 -23.324  1.00  0.00     0.024 A 
HETATM    5  C12 <0>     1      34.125  15.826 -22.449  1.00  0.00    -0.024 A 
HETATM    6  C13 <0>     1      35.398  16.144 -22.912  1.00  0.00     0.024 A 
ENDROOT
BRANCH   1   7
HETATM    7  C5  <0>     1      36.943  16.820 -24.746  1.00  0.00    -0.026 A 
HETATM    8  C4  <0>     1      38.041  16.049 -24.371  1.00  0.00     0.013 A 
HETATM    9  C3  <0>     1      39.300  16.373 -24.834  1.00  0.00     0.007 A 
HETATM   10  C2  <0>     1      39.473  17.463 -25.669  1.00  0.00    -0.062 A 
HETATM   11  C1  <0>     1      40.851  17.812 -26.171  1.00  0.00     0.048 C 
HETATM   12  C7  <0>     1      38.388  18.237 -26.039  1.00  0.00     0.007 A 
HETATM   13  C6  <0>     1      37.123  17.918 -25.587  1.00  0.00     0.013 A 
ENDBRANCH   1   7
BRANCH   5  14
HETATM   14  C14 <0>     1      33.921  15.478 -21.019  1.00  0.00    -0.026 A 
HETATM   15  C15 <0>     1      32.927  14.572 -20.655  1.00  0.00     0.013 A 
HETATM   16  C16 <0>     1      32.742  14.253 -19.326  1.00  0.00     0.007 A 
HETATM   17  C17 <0>     1      33.541  14.830 -18.355  1.00  0.00    -0.062 A 
HETATM   18  C18 <0>     1      34.531  15.729 -18.711  1.00  0.00     0.007 A 
HETATM   19  C20 <0>     1      33.335  14.478 -16.904  1.00  0.00     0.048 C 
HETATM   20  C19 <0>     1      34.728  16.051 -20.039  1.00  0.00     0.013 A 
ENDBRANCH   5  14
BRANCH   3  21
HETATM   21  C21 <0>     1      32.081  16.160 -25.598  1.00  0.00    -0.026 A 
HETATM   22  C26 <0>     1      31.019  15.278 -25.403  1.00  0.00     0.013 A 
HETATM   23  C25 <0>     1      29.946  15.291 -26.272  1.00  0.00     0.007 A 
HETATM   24  C24 <0>     1      29.929  16.167 -27.341  1.00  0.00    -0.062 A 
HETATM   25  C23 <0>     1      30.983  17.041 -27.543  1.00  0.00     0.007 A 
HETATM   26  C27 <0>     1      28.758  16.173 -28.289  1.00  0.00     0.048 C 
HETATM   27  C22 <0>     1      32.058  17.041 -26.677  1.00  0.00     0.013 A 
ENDBRANCH   3  21
TORSDOF 3
ENDMDL
