REMARK  3 active torsions:
REMARK  status: ('A' for Active; 'I' for Inactive)
REMARK       I    between atoms: C2_2  and  N1_4 
REMARK    1  A    between atoms: C3_5  and  N1_4 
REMARK    2  A    between atoms: C4_8  and  S2_10 
REMARK    3  A    between atoms: N4_13  and  S2_10 
ROOT
HETATM    1  C3  <0>     1      81.422  13.467 -12.793  1.00  0.00     0.170 A 
HETATM    2  N2  <0>     1      82.632  12.966 -12.635  1.00  0.00    -0.274 N 
HETATM    3  N3  <0>     1      82.940  11.819 -13.063  1.00  0.00    -0.279 N 
HETATM    4  C4  <0>     1      82.028  11.100 -13.686  1.00  0.00     0.210 A 
HETATM    5  S1  <0>     1      80.637  12.219 -13.610  1.00  0.00    -0.019 SA
HETATM    6  C5  <0>     1      83.647  13.764 -11.943  1.00  0.00     0.180 C 
HETATM    7  H9  <0>     1      83.837  11.471 -12.936  1.00  0.00     0.188 HD
ENDROOT
BRANCH   1   8
HETATM    8  N1  <0>     1      80.923  14.700 -12.386  1.00  0.00    -0.306 N 
HETATM    9  C2  <0>     1      79.640  15.025 -12.642  1.00  0.00     0.219 C 
HETATM   10  C1  <0>     1      79.100  16.361 -12.201  1.00  0.00     0.117 C 
HETATM   11  O1  <0>     1      78.921  14.243 -13.226  1.00  0.00    -0.274 OA
HETATM   12  H8  <0>     1      81.498  15.326 -11.919  1.00  0.00     0.171 HD
ENDBRANCH   1   8
BRANCH   4  13
HETATM   13  S2  <0>     1      82.145   9.489 -14.390  1.00  0.00     0.300 S 
HETATM   14  O2  <0>     1      81.134   9.405 -15.384  1.00  0.00    -0.197 OA
HETATM   15  O3  <0>     1      83.519   9.271 -14.680  1.00  0.00    -0.197 OA
BRANCH  13  16
HETATM   16  N4  <0>     1      81.734   8.407 -13.205  1.00  0.00    -0.211 NA
HETATM   17  H4  <0>     1      81.737   7.455 -13.395  1.00  0.00     0.201 HD
ENDBRANCH  13  16
ENDBRANCH   4  13
TORSDOF 3
