MODEL 1
REMARK VINA RESULT:      -5.7      0.000      0.000
REMARK  3 active torsions:
REMARK  status: ('A' for Active; 'I' for Inactive)
REMARK       I    between atoms: C2_2  and  N1_4 
REMARK    1  A    between atoms: C3_5  and  N1_4 
REMARK    2  A    between atoms: C4_8  and  S2_10 
REMARK    3  A    between atoms: N4_13  and  S2_10 
ROOT
HETATM    1  C3  <0>     1      33.963  14.758 -19.788  1.00  0.00     0.170 A 
HETATM    2  N2  <0>     1      34.453  15.983 -19.802  1.00  0.00    -0.274 N 
HETATM    3  N3  <0>     1      34.701  16.614 -18.737  1.00  0.00    -0.279 N 
HETATM    4  C4  <0>     1      34.465  16.035 -17.578  1.00  0.00     0.210 A 
HETATM    5  S1  <0>     1      33.830  14.460 -18.135  1.00  0.00    -0.019 SA
HETATM    6  C5  <0>     1      34.716  16.629 -21.090  1.00  0.00     0.180 C 
HETATM    7  H9  <0>     1      35.061  17.515 -18.772  1.00  0.00     0.188 HD
ENDROOT
BRANCH   1   8
HETATM    8  N1  <0>     1      33.636  13.932 -20.858  1.00  0.00    -0.306 N 
HETATM    9  C2  <0>     1      34.591  13.184 -21.447  1.00  0.00     0.219 C 
HETATM   10  C1  <0>     1      34.236  12.289 -22.607  1.00  0.00     0.117 C 
HETATM   11  O1  <0>     1      35.733  13.230 -21.044  1.00  0.00    -0.274 OA
HETATM   12  H8  <0>     1      32.723  13.894 -21.181  1.00  0.00     0.171 HD
ENDBRANCH   1   8
BRANCH   4  13
HETATM   13  S2  <0>     1      34.702  16.642 -15.941  1.00  0.00     0.300 S 
HETATM   14  O2  <0>     1      34.456  15.553 -15.063  1.00  0.00    -0.197 OA
HETATM   15  O3  <0>     1      35.932  17.354 -15.946  1.00  0.00    -0.197 OA
BRANCH  13  16
HETATM   16  N4  <0>     1      33.511  17.758 -15.656  1.00  0.00    -0.211 NA
HETATM   17  H4  <0>     1      32.681  17.484 -15.235  1.00  0.00     0.201 HD
ENDBRANCH  13  16
ENDBRANCH   4  13
TORSDOF 3
ENDMDL
MODEL 2
REMARK VINA RESULT:      -5.3      2.103      2.506
REMARK  3 active torsions:
REMARK  status: ('A' for Active; 'I' for Inactive)
REMARK       I    between atoms: C2_2  and  N1_4 
REMARK    1  A    between atoms: C3_5  and  N1_4 
REMARK    2  A    between atoms: C4_8  and  S2_10 
REMARK    3  A    between atoms: N4_13  and  S2_10 
ROOT
HETATM    1  C3  <0>     1      34.728  15.713 -19.761  1.00  0.00     0.170 A 
HETATM    2  N2  <0>     1      34.367  14.687 -19.014  1.00  0.00    -0.274 N 
HETATM    3  N3  <0>     1      34.114  14.814 -17.784  1.00  0.00    -0.279 N 
HETATM    4  C4  <0>     1      34.214  16.005 -17.228  1.00  0.00     0.210 A 
HETATM    5  S1  <0>     1      34.722  16.973 -18.641  1.00  0.00    -0.019 SA
HETATM    6  C5  <0>     1      34.255  13.363 -19.631  1.00  0.00     0.180 C 
HETATM    7  H9  <0>     1      33.850  14.046 -17.254  1.00  0.00     0.188 HD
ENDROOT
BRANCH   1   8
HETATM    8  N1  <0>     1      35.039  15.744 -21.116  1.00  0.00    -0.306 N 
HETATM    9  C2  <0>     1      34.053  15.820 -22.032  1.00  0.00     0.219 C 
HETATM   10  C1  <0>     1      34.391  15.854 -23.500  1.00  0.00     0.117 C 
HETATM   11  O1  <0>     1      32.895  15.861 -21.675  1.00  0.00    -0.274 OA
HETATM   12  H8  <0>     1      35.965  15.711 -21.403  1.00  0.00     0.171 HD
ENDBRANCH   1   8
BRANCH   4  13
HETATM   13  S2  <0>     1      33.932  16.502 -15.561  1.00  0.00     0.300 S 
HETATM   14  O2  <0>     1      32.649  17.110 -15.529  1.00  0.00    -0.197 OA
HETATM   15  O3  <0>     1      34.269  15.390 -14.743  1.00  0.00    -0.197 OA
BRANCH  13  16
HETATM   16  N4  <0>     1      35.028  17.694 -15.214  1.00  0.00    -0.211 NA
HETATM   17  H4  <0>     1      34.794  18.625 -15.357  1.00  0.00     0.201 HD
ENDBRANCH  13  16
ENDBRANCH   4  13
TORSDOF 3
ENDMDL
MODEL 3
REMARK VINA RESULT:      -5.0      1.969      2.282
REMARK  3 active torsions:
REMARK  status: ('A' for Active; 'I' for Inactive)
REMARK       I    between atoms: C2_2  and  N1_4 
REMARK    1  A    between atoms: C3_5  and  N1_4 
REMARK    2  A    between atoms: C4_8  and  S2_10 
REMARK    3  A    between atoms: N4_13  and  S2_10 
ROOT
HETATM    1  C3  <0>     1      34.598  15.734 -19.542  1.00  0.00     0.170 A 
HETATM    2  N2  <0>     1      33.758  14.922 -18.929  1.00  0.00    -0.274 N 
HETATM    3  N3  <0>     1      33.436  15.084 -17.719  1.00  0.00    -0.279 N 
HETATM    4  C4  <0>     1      33.953  16.093 -17.047  1.00  0.00     0.210 A 
HETATM    5  S1  <0>     1      34.981  16.823 -18.313  1.00  0.00    -0.019 SA
HETATM    6  C5  <0>     1      33.183  13.800 -19.675  1.00  0.00     0.180 C 
HETATM    7  H9  <0>     1      32.815  14.474 -17.289  1.00  0.00     0.188 HD
ENDROOT
BRANCH   1   8
HETATM    8  N1  <0>     1      35.054  15.697 -20.855  1.00  0.00    -0.306 N 
HETATM    9  C2  <0>     1      36.132  14.952 -21.174  1.00  0.00     0.219 C 
HETATM   10  C1  <0>     1      36.625  14.913 -22.597  1.00  0.00     0.117 C 
HETATM   11  O1  <0>     1      36.704  14.315 -20.315  1.00  0.00    -0.274 OA
HETATM   12  H8  <0>     1      34.597  16.207 -21.542  1.00  0.00     0.171 HD
ENDBRANCH   1   8
BRANCH   4  13
HETATM   13  S2  <0>     1      33.705  16.581 -15.372  1.00  0.00     0.300 S 
HETATM   14  O2  <0>     1      32.383  17.093 -15.289  1.00  0.00    -0.197 OA
HETATM   15  O3  <0>     1      34.157  15.503 -14.564  1.00  0.00    -0.197 OA
BRANCH  13  16
HETATM   16  N4  <0>     1      34.724  17.853 -15.078  1.00  0.00    -0.211 NA
HETATM   17  H4  <0>     1      34.676  18.651 -15.629  1.00  0.00     0.201 HD
ENDBRANCH  13  16
ENDBRANCH   4  13
TORSDOF 3
ENDMDL
MODEL 4
REMARK VINA RESULT:      -4.9      2.237      5.791
REMARK  3 active torsions:
REMARK  status: ('A' for Active; 'I' for Inactive)
REMARK       I    between atoms: C2_2  and  N1_4 
REMARK    1  A    between atoms: C3_5  and  N1_4 
REMARK    2  A    between atoms: C4_8  and  S2_10 
REMARK    3  A    between atoms: N4_13  and  S2_10 
ROOT
HETATM    1  C3  <0>     1      34.230  15.061 -17.950  1.00  0.00     0.170 A 
HETATM    2  N2  <0>     1      33.221  14.449 -18.540  1.00  0.00    -0.274 N 
HETATM    3  N3  <0>     1      33.303  14.018 -19.724  1.00  0.00    -0.279 N 
HETATM    4  C4  <0>     1      34.428  14.183 -20.391  1.00  0.00     0.210 A 
HETATM    5  S1  <0>     1      35.402  15.039 -19.161  1.00  0.00    -0.019 SA
HETATM    6  C5  <0>     1      31.970  14.265 -17.801  1.00  0.00     0.180 C 
HETATM    7  H9  <0>     1      32.548  13.571 -20.138  1.00  0.00     0.188 HD
ENDROOT
BRANCH   1   8
HETATM    8  N1  <0>     1      34.304  15.590 -16.666  1.00  0.00    -0.306 N 
HETATM    9  C2  <0>     1      34.535  16.907 -16.493  1.00  0.00     0.219 C 
HETATM   10  C1  <0>     1      34.616  17.481 -15.102  1.00  0.00     0.117 C 
HETATM   11  O1  <0>     1      34.677  17.630 -17.456  1.00  0.00    -0.274 OA
HETATM   12  H8  <0>     1      34.191  15.013 -15.895  1.00  0.00     0.171 HD
ENDBRANCH   1   8
BRANCH   4  13
HETATM   13  S2  <0>     1      34.851  13.701 -22.032  1.00  0.00     0.300 S 
HETATM   14  O2  <0>     1      34.957  14.896 -22.792  1.00  0.00    -0.197 OA
HETATM   15  O3  <0>     1      35.920  12.772 -21.920  1.00  0.00    -0.197 OA
BRANCH  13  16
HETATM   16  N4  <0>     1      33.558  12.865 -22.644  1.00  0.00    -0.211 NA
HETATM   17  H4  <0>     1      33.148  13.148 -23.477  1.00  0.00     0.201 HD
ENDBRANCH  13  16
ENDBRANCH   4  13
TORSDOF 3
ENDMDL
