REMARK  8 active torsions:
REMARK  status: ('A' for Active; 'I' for Inactive)
REMARK    1  A    between atoms: C2_3  and  O1_2 
REMARK    2  A    between atoms: C7_8  and  O2_9 
REMARK    3  A    between atoms: C8_10  and  O2_9 
REMARK    4  A    between atoms: C8_10  and  C9_11 
REMARK    5  A    between atoms: C10_12  and  C9_11 
REMARK    6  A    between atoms: C9_11  and  O5_17 
REMARK    7  A    between atoms: C10_12  and  O3_13 
REMARK    8  A    between atoms: C11_14  and  O3_13 
REMARK       I    between atoms: C11_14  and  N1_16 
ROOT
HETATM    1  C8  <0>     1       3.877  -5.023 -31.694  1.00  0.00     0.209 C 
ENDROOT
BRANCH   1   2
HETATM    2  O2  <0>     1       3.693  -3.606 -31.704  1.00  0.00    -0.346 OA
BRANCH   2   3
HETATM    3  C7  <0>     1       4.786  -2.844 -31.973  1.00  0.00     0.102 A 
HETATM    4  C2  <0>     1       4.679  -1.456 -31.999  1.00  0.00     0.101 A 
HETATM    5  C3  <0>     1       5.797  -0.684 -32.269  1.00  0.00     0.039 A 
HETATM    6  C4  <0>     1       7.014  -1.291 -32.516  1.00  0.00     0.003 A 
HETATM    7  C5  <0>     1       7.119  -2.669 -32.496  1.00  0.00     0.003 A 
HETATM    8  C6  <0>     1       6.007  -3.446 -32.228  1.00  0.00     0.039 A 
BRANCH   4   9
HETATM    9  O1  <0>     1       3.482  -0.860 -31.755  1.00  0.00    -0.353 OA
HETATM   10  C1  <0>     1       3.447   0.568 -31.799  1.00  0.00     0.210 C 
ENDBRANCH   4   9
ENDBRANCH   2   3
ENDBRANCH   1   2
BRANCH   1  11
HETATM   11  C9  <0>     1       2.546  -5.708 -31.375  1.00  0.00     0.166 C 
BRANCH  11  12
HETATM   12  C10 <0>     1       2.714  -7.225 -31.486  1.00  0.00     0.214 C 
BRANCH  12  13
HETATM   13  O3  <0>     1       1.446  -7.859 -31.303  1.00  0.00    -0.302 OA
BRANCH  13  14
HETATM   14  C11 <0>     1       1.420  -9.203 -31.372  1.00  0.00     0.358 C 
HETATM   15  O4  <0>     1       2.444  -9.821 -31.582  1.00  0.00    -0.239 OA
HETATM   16  N1  <0>     1       0.256  -9.863 -31.208  1.00  0.00    -0.346 N 
HETATM   17  H13 <0>     1      -0.562  -9.370 -31.040  1.00  0.00     0.161 HD
HETATM   18  H14 <0>     1       0.237 -10.832 -31.257  1.00  0.00     0.161 HD
ENDBRANCH  13  14
ENDBRANCH  12  13
ENDBRANCH  11  12
BRANCH  11  19
HETATM   19  O5  <0>     1       2.143  -5.370 -30.046  1.00  0.00    -0.391 OA
HETATM   20  H15 <0>     1       2.773  -5.638 -29.363  1.00  0.00     0.210 HD
ENDBRANCH  11  19
ENDBRANCH   1  11
TORSDOF 8
