MODEL 1
REMARK VINA RESULT:      -5.9      0.000      0.000
REMARK  8 active torsions:
REMARK  status: ('A' for Active; 'I' for Inactive)
REMARK    1  A    between atoms: C2_3  and  O1_2 
REMARK    2  A    between atoms: C7_8  and  O2_9 
REMARK    3  A    between atoms: C8_10  and  O2_9 
REMARK    4  A    between atoms: C8_10  and  C9_11 
REMARK    5  A    between atoms: C10_12  and  C9_11 
REMARK    6  A    between atoms: C9_11  and  O5_17 
REMARK    7  A    between atoms: C10_12  and  O3_13 
REMARK    8  A    between atoms: C11_14  and  O3_13 
REMARK       I    between atoms: C11_14  and  N1_16 
ROOT
HETATM    1  C8  <0>     1      33.911  13.955 -19.141  1.00  0.00     0.209 C 
ENDROOT
BRANCH   1   2
HETATM    2  O2  <0>     1      33.976  15.080 -20.020  1.00  0.00    -0.346 OA
BRANCH   2   3
HETATM    3  C7  <0>     1      33.107  15.096 -21.065  1.00  0.00     0.102 A 
HETATM    4  C2  <0>     1      33.402  15.840 -22.205  1.00  0.00     0.101 A 
HETATM    5  C3  <0>     1      32.515  15.849 -23.269  1.00  0.00     0.039 A 
HETATM    6  C4  <0>     1      31.340  15.125 -23.197  1.00  0.00     0.003 A 
HETATM    7  C5  <0>     1      31.045  14.392 -22.064  1.00  0.00     0.003 A 
HETATM    8  C6  <0>     1      31.925  14.379 -20.997  1.00  0.00     0.039 A 
BRANCH   4   9
HETATM    9  O1  <0>     1      34.558  16.551 -22.275  1.00  0.00    -0.353 OA
HETATM   10  C1  <0>     1      35.600  16.015 -23.093  1.00  0.00     0.210 C 
ENDBRANCH   4   9
ENDBRANCH   2   3
ENDBRANCH   1   2
BRANCH   1  11
HETATM   11  C9  <0>     1      33.735  14.443 -17.701  1.00  0.00     0.166 C 
BRANCH  11  12
HETATM   12  C10 <0>     1      34.327  15.848 -17.563  1.00  0.00     0.214 C 
BRANCH  12  13
HETATM   13  O3  <0>     1      34.635  16.102 -16.190  1.00  0.00    -0.302 OA
BRANCH  13  14
HETATM   14  C11 <0>     1      33.944  17.082 -15.580  1.00  0.00     0.358 C 
HETATM   15  O4  <0>     1      34.530  18.027 -15.092  1.00  0.00    -0.239 OA
HETATM   16  N1  <0>     1      32.599  17.015 -15.512  1.00  0.00    -0.346 N 
HETATM   17  H13 <0>     1      32.130  16.262 -15.902  1.00  0.00     0.161 HD
HETATM   18  H14 <0>     1      32.100  17.723 -15.073  1.00  0.00     0.161 HD
ENDBRANCH  13  14
ENDBRANCH  12  13
ENDBRANCH  11  12
BRANCH  11  19
HETATM   19  O5  <0>     1      32.344  14.479 -17.377  1.00  0.00    -0.391 OA
HETATM   20  H15 <0>     1      32.096  15.201 -16.783  1.00  0.00     0.210 HD
ENDBRANCH  11  19
ENDBRANCH   1  11
TORSDOF 8
ENDMDL
MODEL 2
REMARK VINA RESULT:      -5.8      1.835      2.110
REMARK  8 active torsions:
REMARK  status: ('A' for Active; 'I' for Inactive)
REMARK    1  A    between atoms: C2_3  and  O1_2 
REMARK    2  A    between atoms: C7_8  and  O2_9 
REMARK    3  A    between atoms: C8_10  and  O2_9 
REMARK    4  A    between atoms: C8_10  and  C9_11 
REMARK    5  A    between atoms: C10_12  and  C9_11 
REMARK    6  A    between atoms: C9_11  and  O5_17 
REMARK    7  A    between atoms: C10_12  and  O3_13 
REMARK    8  A    between atoms: C11_14  and  O3_13 
REMARK       I    between atoms: C11_14  and  N1_16 
ROOT
HETATM    1  C8  <0>     1      33.918  14.935 -18.610  1.00  0.00     0.209 C 
ENDROOT
BRANCH   1   2
HETATM    2  O2  <0>     1      34.072  13.833 -19.506  1.00  0.00    -0.346 OA
BRANCH   2   3
HETATM    3  C7  <0>     1      33.301  13.836 -20.626  1.00  0.00     0.102 A 
HETATM    4  C2  <0>     1      33.775  13.260 -21.801  1.00  0.00     0.101 A 
HETATM    5  C3  <0>     1      32.983  13.261 -22.937  1.00  0.00     0.039 A 
HETATM    6  C4  <0>     1      31.727  13.838 -22.905  1.00  0.00     0.003 A 
HETATM    7  C5  <0>     1      31.259  14.416 -21.740  1.00  0.00     0.003 A 
HETATM    8  C6  <0>     1      32.044  14.418 -20.602  1.00  0.00     0.039 A 
BRANCH   4   9
HETATM    9  O1  <0>     1      35.010  12.692 -21.831  1.00  0.00    -0.353 OA
HETATM   10  C1  <0>     1      36.043  13.420 -22.499  1.00  0.00     0.210 C 
ENDBRANCH   4   9
ENDBRANCH   2   3
ENDBRANCH   1   2
BRANCH   1  11
HETATM   11  C9  <0>     1      34.976  15.996 -18.919  1.00  0.00     0.166 C 
BRANCH  11  12
HETATM   12  C10 <0>     1      35.008  17.028 -17.789  1.00  0.00     0.214 C 
BRANCH  12  13
HETATM   13  O3  <0>     1      33.963  16.745 -16.856  1.00  0.00    -0.302 OA
BRANCH  13  14
HETATM   14  C11 <0>     1      34.260  16.873 -15.550  1.00  0.00     0.358 C 
HETATM   15  O4  <0>     1      34.655  17.937 -15.117  1.00  0.00    -0.239 OA
HETATM   16  N1  <0>     1      34.120  15.819 -14.721  1.00  0.00    -0.346 N 
HETATM   17  H13 <0>     1      33.805  14.969 -15.066  1.00  0.00     0.161 HD
HETATM   18  H14 <0>     1      34.334  15.911 -13.779  1.00  0.00     0.161 HD
ENDBRANCH  13  14
ENDBRANCH  12  13
ENDBRANCH  11  12
BRANCH  11  19
HETATM   19  O5  <0>     1      36.258  15.372 -19.030  1.00  0.00    -0.391 OA
HETATM   20  H15 <0>     1      36.480  15.086 -19.926  1.00  0.00     0.210 HD
ENDBRANCH  11  19
ENDBRANCH   1  11
TORSDOF 8
ENDMDL
MODEL 3
REMARK VINA RESULT:      -5.6      1.087      1.345
REMARK  8 active torsions:
REMARK  status: ('A' for Active; 'I' for Inactive)
REMARK    1  A    between atoms: C2_3  and  O1_2 
REMARK    2  A    between atoms: C7_8  and  O2_9 
REMARK    3  A    between atoms: C8_10  and  O2_9 
REMARK    4  A    between atoms: C8_10  and  C9_11 
REMARK    5  A    between atoms: C10_12  and  C9_11 
REMARK    6  A    between atoms: C9_11  and  O5_17 
REMARK    7  A    between atoms: C10_12  and  O3_13 
REMARK    8  A    between atoms: C11_14  and  O3_13 
REMARK       I    between atoms: C11_14  and  N1_16 
ROOT
HETATM    1  C8  <0>     1      34.663  15.107 -19.366  1.00  0.00     0.209 C 
ENDROOT
BRANCH   1   2
HETATM    2  O2  <0>     1      34.316  15.844 -20.540  1.00  0.00    -0.346 OA
BRANCH   2   3
HETATM    3  C7  <0>     1      33.309  15.347 -21.306  1.00  0.00     0.102 A 
HETATM    4  C2  <0>     1      33.250  15.652 -22.663  1.00  0.00     0.101 A 
HETATM    5  C3  <0>     1      32.225  15.139 -23.440  1.00  0.00     0.039 A 
HETATM    6  C4  <0>     1      31.261  14.329 -22.868  1.00  0.00     0.003 A 
HETATM    7  C5  <0>     1      31.317  14.031 -21.520  1.00  0.00     0.003 A 
HETATM    8  C6  <0>     1      32.337  14.541 -20.738  1.00  0.00     0.039 A 
BRANCH   4   9
HETATM    9  O1  <0>     1      34.198  16.447 -23.225  1.00  0.00    -0.353 OA
HETATM   10  C1  <0>     1      34.637  16.104 -24.541  1.00  0.00     0.210 C 
ENDBRANCH   4   9
ENDBRANCH   2   3
ENDBRANCH   1   2
BRANCH   1  11
HETATM   11  C9  <0>     1      34.565  16.020 -18.142  1.00  0.00     0.166 C 
BRANCH  11  12
HETATM   12  C10 <0>     1      33.918  15.255 -16.985  1.00  0.00     0.214 C 
BRANCH  12  13
HETATM   13  O3  <0>     1      34.319  15.841 -15.744  1.00  0.00    -0.302 OA
BRANCH  13  14
HETATM   14  C11 <0>     1      33.797  17.043 -15.440  1.00  0.00     0.358 C 
HETATM   15  O4  <0>     1      34.530  17.981 -15.198  1.00  0.00    -0.239 OA
HETATM   16  N1  <0>     1      32.459  17.207 -15.403  1.00  0.00    -0.346 N 
HETATM   17  H13 <0>     1      31.873  16.459 -15.596  1.00  0.00     0.161 HD
HETATM   18  H14 <0>     1      32.083  18.074 -15.184  1.00  0.00     0.161 HD
ENDBRANCH  13  14
ENDBRANCH  12  13
ENDBRANCH  11  12
BRANCH  11  19
HETATM   19  O5  <0>     1      35.875  16.444 -17.758  1.00  0.00    -0.391 OA
HETATM   20  H15 <0>     1      35.941  16.739 -16.840  1.00  0.00     0.210 HD
ENDBRANCH  11  19
ENDBRANCH   1  11
TORSDOF 8
ENDMDL
MODEL 4
REMARK VINA RESULT:      -5.2      6.031      7.746
REMARK  8 active torsions:
REMARK  status: ('A' for Active; 'I' for Inactive)
REMARK    1  A    between atoms: C2_3  and  O1_2 
REMARK    2  A    between atoms: C7_8  and  O2_9 
REMARK    3  A    between atoms: C8_10  and  O2_9 
REMARK    4  A    between atoms: C8_10  and  C9_11 
REMARK    5  A    between atoms: C10_12  and  C9_11 
REMARK    6  A    between atoms: C9_11  and  O5_17 
REMARK    7  A    between atoms: C10_12  and  O3_13 
REMARK    8  A    between atoms: C11_14  and  O3_13 
REMARK       I    between atoms: C11_14  and  N1_16 
ROOT
HETATM    1  C8  <0>     1      34.455  10.847 -23.659  1.00  0.00     0.209 C 
ENDROOT
BRANCH   1   2
HETATM    2  O2  <0>     1      34.978  11.825 -22.758  1.00  0.00    -0.346 OA
BRANCH   2   3
HETATM    3  C7  <0>     1      34.100  12.733 -22.256  1.00  0.00     0.102 A 
HETATM    4  C2  <0>     1      34.480  13.562 -21.204  1.00  0.00     0.101 A 
HETATM    5  C3  <0>     1      33.582  14.489 -20.699  1.00  0.00     0.039 A 
HETATM    6  C4  <0>     1      32.312  14.586 -21.235  1.00  0.00     0.003 A 
HETATM    7  C5  <0>     1      31.933  13.758 -22.275  1.00  0.00     0.003 A 
HETATM    8  C6  <0>     1      32.823  12.831 -22.784  1.00  0.00     0.039 A 
BRANCH   4   9
HETATM    9  O1  <0>     1      35.729  13.467 -20.678  1.00  0.00    -0.353 OA
HETATM   10  C1  <0>     1      36.215  14.596 -19.949  1.00  0.00     0.210 C 
ENDBRANCH   4   9
ENDBRANCH   2   3
ENDBRANCH   1   2
BRANCH   1  11
HETATM   11  C9  <0>     1      34.948   9.458 -23.246  1.00  0.00     0.166 C 
BRANCH  11  12
HETATM   12  C10 <0>     1      34.454   8.420 -24.256  1.00  0.00     0.214 C 
BRANCH  12  13
HETATM   13  O3  <0>     1      34.635   7.108 -23.719  1.00  0.00    -0.302 OA
BRANCH  13  14
HETATM   14  C11 <0>     1      33.591   6.567 -23.064  1.00  0.00     0.358 C 
HETATM   15  O4  <0>     1      32.479   7.036 -23.200  1.00  0.00    -0.239 OA
HETATM   16  N1  <0>     1      33.780   5.504 -22.258  1.00  0.00    -0.346 N 
HETATM   17  H13 <0>     1      34.668   5.129 -22.149  1.00  0.00     0.161 HD
HETATM   18  H14 <0>     1      33.027   5.113 -21.786  1.00  0.00     0.161 HD
ENDBRANCH  13  14
ENDBRANCH  12  13
ENDBRANCH  11  12
BRANCH  11  19
HETATM   19  O5  <0>     1      36.377   9.449 -23.217  1.00  0.00    -0.391 OA
HETATM   20  H15 <0>     1      36.775   8.671 -23.631  1.00  0.00     0.210 HD
ENDBRANCH  11  19
ENDBRANCH   1  11
TORSDOF 8
ENDMDL
