REMARK  3 active torsions:
REMARK  status: ('A' for Active; 'I' for Inactive)
REMARK    1  A    between atoms: C4_4  and  C7_7 
REMARK    2  A    between atoms: C11_11  and  C19_19 
REMARK    3  A    between atoms: C12_12  and  C13_13 
ROOT
HETATM    1  C7  <0>     1      65.555  39.172 -21.986  1.00  0.00    -0.014 A 
HETATM    2  C8  <0>     1      64.512  38.650 -21.225  1.00  0.00     0.013 A 
HETATM    3  C9  <0>     1      64.691  37.483 -20.507  1.00  0.00     0.002 A 
HETATM    4  C10 <0>     1      65.904  36.822 -20.534  1.00  0.00     0.013 A 
HETATM    5  C11 <0>     1      66.961  37.326 -21.287  1.00  0.00    -0.014 A 
HETATM    6  C12 <0>     1      66.789  38.506 -22.026  1.00  0.00    -0.004 A 
ENDROOT
BRANCH   1   7
HETATM    7  C4  <0>     1      65.360  40.425 -22.755  1.00  0.00    -0.025 A 
HETATM    8  C3  <0>     1      64.250  40.570 -23.586  1.00  0.00     0.012 A 
HETATM    9  C2  <0>     1      64.073  41.738 -24.299  1.00  0.00     0.001 A 
HETATM   10  C1  <0>     1      64.995  42.763 -24.191  1.00  0.00     0.000 A 
HETATM   11  C6  <0>     1      66.098  42.625 -23.368  1.00  0.00     0.001 A 
HETATM   12  C5  <0>     1      66.285  41.462 -22.650  1.00  0.00     0.012 A 
ENDBRANCH   1   7
BRANCH   6  13
HETATM   13  C13 <0>     1      67.903  39.049 -22.836  1.00  0.00    -0.024 A 
HETATM   14  C14 <0>     1      67.791  39.117 -24.225  1.00  0.00     0.012 A 
HETATM   15  C15 <0>     1      68.832  39.623 -24.974  1.00  0.00     0.001 A 
HETATM   16  C16 <0>     1      69.987  40.062 -24.351  1.00  0.00     0.000 A 
HETATM   17  C17 <0>     1      70.105  39.997 -22.974  1.00  0.00     0.001 A 
HETATM   18  C18 <0>     1      69.068  39.498 -22.213  1.00  0.00     0.012 A 
ENDBRANCH   6  13
BRANCH   5  19
HETATM   19  C19 <0>     1      68.261  36.615 -21.314  1.00  0.00    -0.025 A 
HETATM   20  C20 <0>     1      68.879  36.332 -22.531  1.00  0.00     0.012 A 
HETATM   21  C21 <0>     1      70.090  35.670 -22.549  1.00  0.00     0.001 A 
HETATM   22  C22 <0>     1      70.690  35.286 -21.363  1.00  0.00     0.000 A 
HETATM   23  C23 <0>     1      70.081  35.564 -20.153  1.00  0.00     0.001 A 
HETATM   24  C24 <0>     1      68.873  36.231 -20.122  1.00  0.00     0.012 A 
ENDBRANCH   5  19
TORSDOF 3
