MODEL 1
REMARK VINA RESULT:      -6.9      0.000      0.000
REMARK  3 active torsions:
REMARK  status: ('A' for Active; 'I' for Inactive)
REMARK    1  A    between atoms: C4_4  and  C7_7 
REMARK    2  A    between atoms: C11_11  and  C19_19 
REMARK    3  A    between atoms: C12_12  and  C13_13 
ROOT
HETATM    1  C7  <0>     1      33.776  16.162 -25.337  1.00  0.00    -0.014 A 
HETATM    2  C8  <0>     1      34.842  16.750 -26.014  1.00  0.00     0.013 A 
HETATM    3  C9  <0>     1      36.022  17.023 -25.351  1.00  0.00     0.002 A 
HETATM    4  C10 <0>     1      36.161  16.716 -24.011  1.00  0.00     0.013 A 
HETATM    5  C11 <0>     1      35.110  16.127 -23.313  1.00  0.00    -0.014 A 
HETATM    6  C12 <0>     1      33.904  15.852 -23.974  1.00  0.00    -0.004 A 
ENDROOT
BRANCH   1   7
HETATM    7  C4  <0>     1      32.511  15.869 -26.052  1.00  0.00    -0.025 A 
HETATM    8  C3  <0>     1      32.209  14.562 -26.433  1.00  0.00     0.012 A 
HETATM    9  C2  <0>     1      31.029  14.295 -27.097  1.00  0.00     0.001 A 
HETATM   10  C1  <0>     1      30.149  15.321 -27.387  1.00  0.00     0.000 A 
HETATM   11  C6  <0>     1      30.443  16.619 -27.011  1.00  0.00     0.001 A 
HETATM   12  C5  <0>     1      31.618  16.898 -26.345  1.00  0.00     0.012 A 
ENDBRANCH   1   7
BRANCH   6  13
HETATM   13  C13 <0>     1      32.776  15.231 -23.243  1.00  0.00    -0.024 A 
HETATM   14  C14 <0>     1      31.709  16.016 -22.805  1.00  0.00     0.012 A 
HETATM   15  C15 <0>     1      30.662  15.433 -22.124  1.00  0.00     0.001 A 
HETATM   16  C16 <0>     1      30.668  14.072 -21.873  1.00  0.00     0.000 A 
HETATM   17  C17 <0>     1      31.724  13.288 -22.303  1.00  0.00     0.001 A 
HETATM   18  C18 <0>     1      32.774  13.859 -22.991  1.00  0.00     0.012 A 
ENDBRANCH   6  13
BRANCH   5  19
HETATM   19  C19 <0>     1      35.262  15.799 -21.876  1.00  0.00    -0.025 A 
HETATM   20  C20 <0>     1      36.123  14.778 -21.478  1.00  0.00     0.012 A 
HETATM   21  C21 <0>     1      36.260  14.477 -20.138  1.00  0.00     0.001 A 
HETATM   22  C22 <0>     1      35.544  15.186 -19.190  1.00  0.00     0.000 A 
HETATM   23  C23 <0>     1      34.688  16.200 -19.580  1.00  0.00     0.001 A 
HETATM   24  C24 <0>     1      34.547  16.514 -20.916  1.00  0.00     0.012 A 
ENDBRANCH   5  19
TORSDOF 3
ENDMDL
MODEL 2
REMARK VINA RESULT:      -6.8      0.129      5.554
REMARK  3 active torsions:
REMARK  status: ('A' for Active; 'I' for Inactive)
REMARK    1  A    between atoms: C4_4  and  C7_7 
REMARK    2  A    between atoms: C11_11  and  C19_19 
REMARK    3  A    between atoms: C12_12  and  C13_13 
ROOT
HETATM    1  C7  <0>     1      35.090  16.058 -23.301  1.00  0.00    -0.014 A 
HETATM    2  C8  <0>     1      36.181  16.570 -23.999  1.00  0.00     0.013 A 
HETATM    3  C9  <0>     1      36.074  16.854 -25.347  1.00  0.00     0.002 A 
HETATM    4  C10 <0>     1      34.886  16.635 -26.017  1.00  0.00     0.013 A 
HETATM    5  C11 <0>     1      33.782  16.125 -25.340  1.00  0.00    -0.014 A 
HETATM    6  C12 <0>     1      33.881  15.826 -23.973  1.00  0.00    -0.004 A 
ENDROOT
BRANCH   1   7
HETATM    7  C4  <0>     1      35.208  15.755 -21.854  1.00  0.00    -0.025 A 
HETATM    8  C3  <0>     1      36.016  14.704 -21.424  1.00  0.00     0.012 A 
HETATM    9  C2  <0>     1      36.123  14.426 -20.076  1.00  0.00     0.001 A 
HETATM   10  C1  <0>     1      35.428  15.188 -19.154  1.00  0.00     0.000 A 
HETATM   11  C6  <0>     1      34.625  16.232 -19.575  1.00  0.00     0.001 A 
HETATM   12  C5  <0>     1      34.511  16.519 -20.920  1.00  0.00     0.012 A 
ENDBRANCH   1   7
BRANCH   6  13
HETATM   13  C13 <0>     1      32.716  15.277 -23.243  1.00  0.00    -0.024 A 
HETATM   14  C14 <0>     1      31.653  16.109 -22.891  1.00  0.00     0.012 A 
HETATM   15  C15 <0>     1      30.571  15.592 -22.210  1.00  0.00     0.001 A 
HETATM   16  C16 <0>     1      30.539  14.250 -21.875  1.00  0.00     0.000 A 
HETATM   17  C17 <0>     1      31.589  13.419 -22.220  1.00  0.00     0.001 A 
HETATM   18  C18 <0>     1      32.675  13.923 -22.907  1.00  0.00     0.012 A 
ENDBRANCH   6  13
BRANCH   5  19
HETATM   19  C19 <0>     1      32.509  15.891 -26.062  1.00  0.00    -0.025 A 
HETATM   20  C20 <0>     1      31.686  16.966 -26.396  1.00  0.00     0.012 A 
HETATM   21  C21 <0>     1      30.502  16.741 -27.069  1.00  0.00     0.001 A 
HETATM   22  C22 <0>     1      30.130  15.453 -27.411  1.00  0.00     0.000 A 
HETATM   23  C23 <0>     1      30.943  14.384 -27.082  1.00  0.00     0.001 A 
HETATM   24  C24 <0>     1      32.132  14.596 -26.414  1.00  0.00     0.012 A 
ENDBRANCH   5  19
TORSDOF 3
ENDMDL
MODEL 3
REMARK VINA RESULT:      -6.6      1.930      5.970
REMARK  3 active torsions:
REMARK  status: ('A' for Active; 'I' for Inactive)
REMARK    1  A    between atoms: C4_4  and  C7_7 
REMARK    2  A    between atoms: C11_11  and  C19_19 
REMARK    3  A    between atoms: C12_12  and  C13_13 
ROOT
HETATM    1  C7  <0>     1      34.937  13.702 -22.123  1.00  0.00    -0.014 A 
HETATM    2  C8  <0>     1      36.128  13.044 -22.419  1.00  0.00     0.013 A 
HETATM    3  C9  <0>     1      36.336  12.516 -23.678  1.00  0.00     0.002 A 
HETATM    4  C10 <0>     1      35.368  12.634 -24.657  1.00  0.00     0.013 A 
HETATM    5  C11 <0>     1      34.170  13.288 -24.384  1.00  0.00    -0.014 A 
HETATM    6  C12 <0>     1      33.945  13.823 -23.107  1.00  0.00    -0.004 A 
ENDROOT
BRANCH   1   7
HETATM    7  C4  <0>     1      34.717  14.269 -20.770  1.00  0.00    -0.025 A 
HETATM    8  C3  <0>     1      34.943  15.625 -20.535  1.00  0.00     0.012 A 
HETATM    9  C2  <0>     1      34.737  16.148 -19.275  1.00  0.00     0.001 A 
HETATM   10  C1  <0>     1      34.307  15.329 -18.246  1.00  0.00     0.000 A 
HETATM   11  C6  <0>     1      34.081  13.984 -18.474  1.00  0.00     0.001 A 
HETATM   12  C5  <0>     1      34.284  13.450 -19.729  1.00  0.00     0.012 A 
ENDBRANCH   1   7
BRANCH   6  13
HETATM   13  C13 <0>     1      32.672  14.515 -22.801  1.00  0.00    -0.024 A 
HETATM   14  C14 <0>     1      32.451  15.811 -23.267  1.00  0.00     0.012 A 
HETATM   15  C15 <0>     1      31.264  16.451 -22.979  1.00  0.00     0.001 A 
HETATM   16  C16 <0>     1      30.294  15.811 -22.228  1.00  0.00     0.000 A 
HETATM   17  C17 <0>     1      30.508  14.526 -21.762  1.00  0.00     0.001 A 
HETATM   18  C18 <0>     1      31.688  13.873 -22.048  1.00  0.00     0.012 A 
ENDBRANCH   6  13
BRANCH   5  19
HETATM   19  C19 <0>     1      33.134  13.413 -25.436  1.00  0.00    -0.025 A 
HETATM   20  C20 <0>     1      33.281  14.352 -26.455  1.00  0.00     0.012 A 
HETATM   21  C21 <0>     1      32.312  14.464 -27.432  1.00  0.00     0.001 A 
HETATM   22  C22 <0>     1      31.196  13.647 -27.400  1.00  0.00     0.000 A 
HETATM   23  C23 <0>     1      31.045  12.714 -26.391  1.00  0.00     0.001 A 
HETATM   24  C24 <0>     1      32.010  12.589 -25.412  1.00  0.00     0.012 A 
ENDBRANCH   5  19
TORSDOF 3
ENDMDL
MODEL 4
REMARK VINA RESULT:      -6.4      1.682      3.827
REMARK  3 active torsions:
REMARK  status: ('A' for Active; 'I' for Inactive)
REMARK    1  A    between atoms: C4_4  and  C7_7 
REMARK    2  A    between atoms: C11_11  and  C19_19 
REMARK    3  A    between atoms: C12_12  and  C13_13 
ROOT
HETATM    1  C7  <0>     1      33.045  16.080 -25.059  1.00  0.00    -0.014 A 
HETATM    2  C8  <0>     1      31.693  16.413 -25.045  1.00  0.00     0.013 A 
HETATM    3  C9  <0>     1      30.978  16.371 -23.863  1.00  0.00     0.002 A 
HETATM    4  C10 <0>     1      31.595  16.001 -22.683  1.00  0.00     0.013 A 
HETATM    5  C11 <0>     1      32.946  15.664 -22.673  1.00  0.00    -0.014 A 
HETATM    6  C12 <0>     1      33.680  15.696 -23.868  1.00  0.00    -0.004 A 
ENDROOT
BRANCH   1   7
HETATM    7  C4  <0>     1      33.809  16.126 -26.329  1.00  0.00    -0.025 A 
HETATM    8  C3  <0>     1      33.906  14.989 -27.129  1.00  0.00     0.012 A 
HETATM    9  C2  <0>     1      34.618  15.037 -28.310  1.00  0.00     0.001 A 
HETATM   10  C1  <0>     1      35.236  16.212 -28.699  1.00  0.00     0.000 A 
HETATM   11  C6  <0>     1      35.144  17.343 -27.910  1.00  0.00     0.001 A 
HETATM   12  C5  <0>     1      34.434  17.307 -26.727  1.00  0.00     0.012 A 
ENDBRANCH   1   7
BRANCH   6  13
HETATM   13  C13 <0>     1      35.116  15.335 -23.872  1.00  0.00    -0.024 A 
HETATM   14  C14 <0>     1      35.503  14.004 -24.036  1.00  0.00     0.012 A 
HETATM   15  C15 <0>     1      36.841  13.674 -24.039  1.00  0.00     0.001 A 
HETATM   16  C16 <0>     1      37.800  14.658 -23.878  1.00  0.00     0.000 A 
HETATM   17  C17 <0>     1      37.423  15.979 -23.714  1.00  0.00     0.001 A 
HETATM   18  C18 <0>     1      36.087  16.324 -23.716  1.00  0.00     0.012 A 
ENDBRANCH   6  13
BRANCH   5  19
HETATM   19  C19 <0>     1      33.604  15.268 -21.407  1.00  0.00    -0.025 A 
HETATM   20  C20 <0>     1      33.539  13.946 -20.967  1.00  0.00     0.012 A 
HETATM   21  C21 <0>     1      34.155  13.583 -19.787  1.00  0.00     0.001 A 
HETATM   22  C22 <0>     1      34.835  14.527 -19.039  1.00  0.00     0.000 A 
HETATM   23  C23 <0>     1      34.903  15.840 -19.470  1.00  0.00     0.001 A 
HETATM   24  C24 <0>     1      34.296  16.213 -20.652  1.00  0.00     0.012 A 
ENDBRANCH   5  19
TORSDOF 3
ENDMDL
MODEL 5
REMARK VINA RESULT:      -6.3      2.113      6.156
REMARK  3 active torsions:
REMARK  status: ('A' for Active; 'I' for Inactive)
REMARK    1  A    between atoms: C4_4  and  C7_7 
REMARK    2  A    between atoms: C11_11  and  C19_19 
REMARK    3  A    between atoms: C12_12  and  C13_13 
ROOT
HETATM    1  C7  <0>     1      32.502  15.370 -22.986  1.00  0.00    -0.014 A 
HETATM    2  C8  <0>     1      31.540  16.346 -23.237  1.00  0.00     0.013 A 
HETATM    3  C9  <0>     1      30.997  16.478 -24.501  1.00  0.00     0.002 A 
HETATM    4  C10 <0>     1      31.398  15.645 -25.527  1.00  0.00     0.013 A 
HETATM    5  C11 <0>     1      32.357  14.661 -25.299  1.00  0.00    -0.014 A 
HETATM    6  C12 <0>     1      32.922  14.523 -24.022  1.00  0.00    -0.004 A 
ENDROOT
BRANCH   1   7
HETATM    7  C4  <0>     1      33.083  15.231 -21.628  1.00  0.00    -0.025 A 
HETATM    8  C3  <0>     1      34.210  15.969 -21.271  1.00  0.00     0.012 A 
HETATM    9  C2  <0>     1      34.747  15.836 -20.007  1.00  0.00     0.001 A 
HETATM   10  C1  <0>     1      34.169  14.971 -19.095  1.00  0.00     0.000 A 
HETATM   11  C6  <0>     1      33.050  14.236 -19.444  1.00  0.00     0.001 A 
HETATM   12  C5  <0>     1      32.505  14.361 -20.705  1.00  0.00     0.012 A 
ENDBRANCH   1   7
BRANCH   6  13
HETATM   13  C13 <0>     1      33.947  13.486 -23.767  1.00  0.00    -0.024 A 
HETATM   14  C14 <0>     1      35.300  13.785 -23.925  1.00  0.00     0.012 A 
HETATM   15  C15 <0>     1      36.250  12.814 -23.687  1.00  0.00     0.001 A 
HETATM   16  C16 <0>     1      35.864  11.545 -23.294  1.00  0.00     0.000 A 
HETATM   17  C17 <0>     1      34.524  11.242 -23.136  1.00  0.00     0.001 A 
HETATM   18  C18 <0>     1      33.563  12.206 -23.365  1.00  0.00     0.012 A 
ENDBRANCH   6  13
BRANCH   5  19
HETATM   19  C19 <0>     1      32.785  13.769 -26.402  1.00  0.00    -0.025 A 
HETATM   20  C20 <0>     1      32.116  12.568 -26.630  1.00  0.00     0.012 A 
HETATM   21  C21 <0>     1      32.520  11.742 -27.660  1.00  0.00     0.001 A 
HETATM   22  C22 <0>     1      33.587  12.103 -28.463  1.00  0.00     0.000 A 
HETATM   23  C23 <0>     1      34.255  13.293 -28.240  1.00  0.00     0.001 A 
HETATM   24  C24 <0>     1      33.856  14.130 -27.217  1.00  0.00     0.012 A 
ENDBRANCH   5  19
TORSDOF 3
ENDMDL
MODEL 6
REMARK VINA RESULT:      -6.3      1.711      6.220
REMARK  3 active torsions:
REMARK  status: ('A' for Active; 'I' for Inactive)
REMARK    1  A    between atoms: C4_4  and  C7_7 
REMARK    2  A    between atoms: C11_11  and  C19_19 
REMARK    3  A    between atoms: C12_12  and  C13_13 
ROOT
HETATM    1  C7  <0>     1      33.078  15.694 -22.913  1.00  0.00    -0.014 A 
HETATM    2  C8  <0>     1      31.721  16.002 -22.976  1.00  0.00     0.013 A 
HETATM    3  C9  <0>     1      31.150  16.389 -24.173  1.00  0.00     0.002 A 
HETATM    4  C10 <0>     1      31.916  16.475 -25.320  1.00  0.00     0.013 A 
HETATM    5  C11 <0>     1      33.274  16.171 -25.281  1.00  0.00    -0.014 A 
HETATM    6  C12 <0>     1      33.866  15.783 -24.070  1.00  0.00    -0.004 A 
ENDROOT
BRANCH   1   7
HETATM    7  C4  <0>     1      33.688  15.278 -21.627  1.00  0.00    -0.025 A 
HETATM    8  C3  <0>     1      33.665  13.938 -21.244  1.00  0.00     0.012 A 
HETATM    9  C2  <0>     1      34.234  13.556 -20.046  1.00  0.00     0.001 A 
HETATM   10  C1  <0>     1      34.825  14.500 -19.226  1.00  0.00     0.000 A 
HETATM   11  C6  <0>     1      34.851  15.831 -19.602  1.00  0.00     0.001 A 
HETATM   12  C5  <0>     1      34.285  16.224 -20.797  1.00  0.00     0.012 A 
ENDBRANCH   1   7
BRANCH   6  13
HETATM   13  C13 <0>     1      35.311  15.464 -24.014  1.00  0.00    -0.024 A 
HETATM   14  C14 <0>     1      35.744  14.147 -24.172  1.00  0.00     0.012 A 
HETATM   15  C15 <0>     1      37.090  13.856 -24.118  1.00  0.00     0.001 A 
HETATM   16  C16 <0>     1      38.012  14.866 -23.906  1.00  0.00     0.000 A 
HETATM   17  C17 <0>     1      37.590  16.174 -23.748  1.00  0.00     0.001 A 
HETATM   18  C18 <0>     1      36.245  16.479 -23.806  1.00  0.00     0.012 A 
ENDBRANCH   6  13
BRANCH   5  19
HETATM   19  C19 <0>     1      34.093  16.263 -26.513  1.00  0.00    -0.025 A 
HETATM   20  C20 <0>     1      34.258  15.145 -27.329  1.00  0.00     0.012 A 
HETATM   21  C21 <0>     1      35.022  15.238 -28.475  1.00  0.00     0.001 A 
HETATM   22  C22 <0>     1      35.623  16.437 -28.814  1.00  0.00     0.000 A 
HETATM   23  C23 <0>     1      35.463  17.549 -28.008  1.00  0.00     0.001 A 
HETATM   24  C24 <0>     1      34.696  17.470 -26.863  1.00  0.00     0.012 A 
ENDBRANCH   5  19
TORSDOF 3
ENDMDL
MODEL 7
REMARK VINA RESULT:      -6.3      2.104      3.549
REMARK  3 active torsions:
REMARK  status: ('A' for Active; 'I' for Inactive)
REMARK    1  A    between atoms: C4_4  and  C7_7 
REMARK    2  A    between atoms: C11_11  and  C19_19 
REMARK    3  A    between atoms: C12_12  and  C13_13 
ROOT
HETATM    1  C7  <0>     1      32.304  14.657 -25.254  1.00  0.00    -0.014 A 
HETATM    2  C8  <0>     1      31.358  15.655 -25.479  1.00  0.00     0.013 A 
HETATM    3  C9  <0>     1      30.986  16.504 -24.454  1.00  0.00     0.002 A 
HETATM    4  C10 <0>     1      31.547  16.375 -23.198  1.00  0.00     0.013 A 
HETATM    5  C11 <0>     1      32.495  15.386 -22.951  1.00  0.00    -0.014 A 
HETATM    6  C12 <0>     1      32.875  14.513 -23.981  1.00  0.00    -0.004 A 
ENDROOT
BRANCH   1   7
HETATM    7  C4  <0>     1      32.702  13.748 -26.356  1.00  0.00    -0.025 A 
HETATM    8  C3  <0>     1      32.014  12.552 -26.559  1.00  0.00     0.012 A 
HETATM    9  C2  <0>     1      32.388  11.710 -27.585  1.00  0.00     0.001 A 
HETATM   10  C1  <0>     1      33.444  12.049 -28.412  1.00  0.00     0.000 A 
HETATM   11  C6  <0>     1      34.129  13.234 -28.216  1.00  0.00     0.001 A 
HETATM   12  C5  <0>     1      33.764  14.084 -27.193  1.00  0.00     0.012 A 
ENDBRANCH   1   7
BRANCH   6  13
HETATM   13  C13 <0>     1      33.877  13.453 -23.730  1.00  0.00    -0.024 A 
HETATM   14  C14 <0>     1      35.236  13.715 -23.912  1.00  0.00     0.012 A 
HETATM   15  C15 <0>     1      36.164  12.723 -23.677  1.00  0.00     0.001 A 
HETATM   16  C16 <0>     1      35.751  11.469 -23.262  1.00  0.00     0.000 A 
HETATM   17  C17 <0>     1      34.406  11.202 -23.079  1.00  0.00     0.001 A 
HETATM   18  C18 <0>     1      33.468  12.188 -23.306  1.00  0.00     0.012 A 
ENDBRANCH   6  13
BRANCH   5  19
HETATM   19  C19 <0>     1      33.095  15.251 -21.602  1.00  0.00    -0.025 A 
HETATM   20  C20 <0>     1      32.542  14.367 -20.676  1.00  0.00     0.012 A 
HETATM   21  C21 <0>     1      33.106  14.246 -19.422  1.00  0.00     0.001 A 
HETATM   22  C22 <0>     1      34.216  14.999 -19.083  1.00  0.00     0.000 A 
HETATM   23  C23 <0>     1      34.768  15.876 -19.998  1.00  0.00     0.001 A 
HETATM   24  C24 <0>     1      34.217  16.002 -21.257  1.00  0.00     0.012 A 
ENDBRANCH   5  19
TORSDOF 3
ENDMDL
MODEL 8
REMARK VINA RESULT:      -6.3      3.151      5.831
REMARK  3 active torsions:
REMARK  status: ('A' for Active; 'I' for Inactive)
REMARK    1  A    between atoms: C4_4  and  C7_7 
REMARK    2  A    between atoms: C11_11  and  C19_19 
REMARK    3  A    between atoms: C12_12  and  C13_13 
ROOT
HETATM    1  C7  <0>     1      34.519  11.752 -25.248  1.00  0.00    -0.014 A 
HETATM    2  C8  <0>     1      33.767  11.117 -26.233  1.00  0.00     0.013 A 
HETATM    3  C9  <0>     1      32.450  11.478 -26.443  1.00  0.00     0.002 A 
HETATM    4  C10 <0>     1      31.864  12.470 -25.681  1.00  0.00     0.013 A 
HETATM    5  C11 <0>     1      32.597  13.119 -24.691  1.00  0.00    -0.014 A 
HETATM    6  C12 <0>     1      33.933  12.757 -24.464  1.00  0.00    -0.004 A 
ENDROOT
BRANCH   1   7
HETATM    7  C4  <0>     1      35.933  11.363 -25.025  1.00  0.00    -0.025 A 
HETATM    8  C3  <0>     1      36.246  10.354 -24.116  1.00  0.00     0.012 A 
HETATM    9  C2  <0>     1      37.563   9.996 -23.913  1.00  0.00     0.001 A 
HETATM   10  C1  <0>     1      38.571  10.637 -24.609  1.00  0.00     0.000 A 
HETATM   11  C6  <0>     1      38.267  11.639 -25.513  1.00  0.00     0.001 A 
HETATM   12  C5  <0>     1      36.954  12.005 -25.724  1.00  0.00     0.012 A 
ENDBRANCH   1   7
BRANCH   6  13
HETATM   13  C13 <0>     1      34.722  13.435 -23.410  1.00  0.00    -0.024 A 
HETATM   14  C14 <0>     1      35.466  14.574 -23.716  1.00  0.00     0.012 A 
HETATM   15  C15 <0>     1      36.199  15.200 -22.730  1.00  0.00     0.001 A 
HETATM   16  C16 <0>     1      36.198  14.700 -21.440  1.00  0.00     0.000 A 
HETATM   17  C17 <0>     1      35.462  13.570 -21.130  1.00  0.00     0.001 A 
HETATM   18  C18 <0>     1      34.720  12.938 -22.106  1.00  0.00     0.012 A 
ENDBRANCH   6  13
BRANCH   5  19
HETATM   19  C19 <0>     1      31.967  14.184 -23.876  1.00  0.00    -0.025 A 
HETATM   20  C20 <0>     1      31.872  15.483 -24.372  1.00  0.00     0.012 A 
HETATM   21  C21 <0>     1      31.283  16.470 -23.607  1.00  0.00     0.001 A 
HETATM   22  C22 <0>     1      30.789  16.172 -22.350  1.00  0.00     0.000 A 
HETATM   23  C23 <0>     1      30.880  14.885 -21.853  1.00  0.00     0.001 A 
HETATM   24  C24 <0>     1      31.461  13.889 -22.611  1.00  0.00     0.012 A 
ENDBRANCH   5  19
TORSDOF 3
ENDMDL
MODEL 9
REMARK VINA RESULT:      -6.2      3.332      5.889
REMARK  3 active torsions:
REMARK  status: ('A' for Active; 'I' for Inactive)
REMARK    1  A    between atoms: C4_4  and  C7_7 
REMARK    2  A    between atoms: C11_11  and  C19_19 
REMARK    3  A    between atoms: C12_12  and  C13_13 
ROOT
HETATM    1  C7  <0>     1      34.357  12.156 -23.242  1.00  0.00    -0.014 A 
HETATM    2  C8  <0>     1      34.261  10.779 -23.056  1.00  0.00     0.013 A 
HETATM    3  C9  <0>     1      35.193   9.934 -23.628  1.00  0.00     0.002 A 
HETATM    4  C10 <0>     1      36.229  10.442 -24.387  1.00  0.00     0.013 A 
HETATM    5  C11 <0>     1      36.345  11.815 -24.585  1.00  0.00    -0.014 A 
HETATM    6  C12 <0>     1      35.401  12.683 -24.016  1.00  0.00    -0.004 A 
ENDROOT
BRANCH   1   7
HETATM    7  C4  <0>     1      33.356  13.061 -22.626  1.00  0.00    -0.025 A 
HETATM    8  C3  <0>     1      32.167  13.347 -23.296  1.00  0.00     0.012 A 
HETATM    9  C2  <0>     1      31.239  14.189 -22.719  1.00  0.00     0.001 A 
HETATM   10  C1  <0>     1      31.488  14.750 -21.479  1.00  0.00     0.000 A 
HETATM   11  C6  <0>     1      32.665  14.470 -20.811  1.00  0.00     0.001 A 
HETATM   12  C5  <0>     1      33.600  13.629 -21.377  1.00  0.00     0.012 A 
ENDBRANCH   1   7
BRANCH   6  13
HETATM   13  C13 <0>     1      35.510  14.145 -24.225  1.00  0.00    -0.024 A 
HETATM   14  C14 <0>     1      36.279  14.921 -23.357  1.00  0.00     0.012 A 
HETATM   15  C15 <0>     1      36.376  16.282 -23.556  1.00  0.00     0.001 A 
HETATM   16  C16 <0>     1      35.711  16.879 -24.613  1.00  0.00     0.000 A 
HETATM   17  C17 <0>     1      34.946  16.115 -25.476  1.00  0.00     0.001 A 
HETATM   18  C18 <0>     1      34.846  14.752 -25.291  1.00  0.00     0.012 A 
ENDBRANCH   6  13
BRANCH   5  19
HETATM   19  C19 <0>     1      37.458  12.358 -25.400  1.00  0.00    -0.025 A 
HETATM   20  C20 <0>     1      38.668  12.696 -24.797  1.00  0.00     0.012 A 
HETATM   21  C21 <0>     1      39.700  13.201 -25.562  1.00  0.00     0.001 A 
HETATM   22  C22 <0>     1      39.535  13.373 -26.924  1.00  0.00     0.000 A 
HETATM   23  C23 <0>     1      38.337  13.039 -27.528  1.00  0.00     0.001 A 
HETATM   24  C24 <0>     1      37.299  12.528 -26.775  1.00  0.00     0.012 A 
ENDBRANCH   5  19
TORSDOF 3
ENDMDL
MODEL 10
REMARK VINA RESULT:      -6.2      3.363      5.883
REMARK  3 active torsions:
REMARK  status: ('A' for Active; 'I' for Inactive)
REMARK    1  A    between atoms: C4_4  and  C7_7 
REMARK    2  A    between atoms: C11_11  and  C19_19 
REMARK    3  A    between atoms: C12_12  and  C13_13 
ROOT
HETATM    1  C7  <0>     1      36.341  11.769 -24.598  1.00  0.00    -0.014 A 
HETATM    2  C8  <0>     1      36.225  10.397 -24.390  1.00  0.00     0.013 A 
HETATM    3  C9  <0>     1      35.189   9.894 -23.626  1.00  0.00     0.002 A 
HETATM    4  C10 <0>     1      34.258  10.744 -23.061  1.00  0.00     0.013 A 
HETATM    5  C11 <0>     1      34.354  12.120 -23.257  1.00  0.00    -0.014 A 
HETATM    6  C12 <0>     1      35.405  12.642 -24.024  1.00  0.00    -0.004 A 
ENDROOT
BRANCH   1   7
HETATM    7  C4  <0>     1      37.454  12.305 -25.420  1.00  0.00    -0.025 A 
HETATM    8  C3  <0>     1      38.661  12.656 -24.818  1.00  0.00     0.012 A 
HETATM    9  C2  <0>     1      39.693  13.154 -25.586  1.00  0.00     0.001 A 
HETATM   10  C1  <0>     1      39.530  13.306 -26.951  1.00  0.00     0.000 A 
HETATM   11  C6  <0>     1      38.335  12.959 -27.554  1.00  0.00     0.001 A 
HETATM   12  C5  <0>     1      37.296  12.460 -26.796  1.00  0.00     0.012 A 
ENDBRANCH   1   7
BRANCH   6  13
HETATM   13  C13 <0>     1      35.522  14.103 -24.234  1.00  0.00    -0.024 A 
HETATM   14  C14 <0>     1      36.283  14.878 -23.359  1.00  0.00     0.012 A 
HETATM   15  C15 <0>     1      36.388  16.238 -23.559  1.00  0.00     0.001 A 
HETATM   16  C16 <0>     1      35.740  16.835 -24.626  1.00  0.00     0.000 A 
HETATM   17  C17 <0>     1      34.983  16.073 -25.498  1.00  0.00     0.001 A 
HETATM   18  C18 <0>     1      34.875  14.710 -25.311  1.00  0.00     0.012 A 
ENDBRANCH   6  13
BRANCH   5  19
HETATM   19  C19 <0>     1      33.353  13.029 -22.650  1.00  0.00    -0.025 A 
HETATM   20  C20 <0>     1      33.589  13.593 -21.397  1.00  0.00     0.012 A 
HETATM   21  C21 <0>     1      32.653  14.440 -20.838  1.00  0.00     0.001 A 
HETATM   22  C22 <0>     1      31.483  14.728 -21.517  1.00  0.00     0.000 A 
HETATM   23  C23 <0>     1      31.244  14.171 -22.760  1.00  0.00     0.001 A 
HETATM   24  C24 <0>     1      32.175  13.328 -23.332  1.00  0.00     0.012 A 
ENDBRANCH   5  19
TORSDOF 3
ENDMDL
