
          11280715382D 1   1.00000     0.00000     0

 25 27  0     0  0            999 V2000
    4.3542   -0.9250    0.0000 C   0  0  0  0  0  0           0  0  0
    3.5792   -1.2292    0.0000 C   0  0  0  0  0  0           0  0  0
    0.7167    0.4375    0.0000 S   0  0  3  0  0  0           0  0  0
    3.6292   -2.0500    0.0000 O   0  0  0  0  0  0           0  0  0
    4.8792   -1.5625    0.0000 C   0  0  0  0  0  0           0  0  0
    4.4292   -2.2542    0.0000 C   0  0  3  0  0  0           0  0  0
    4.5667   -0.1250    0.0000 C   0  0  0  0  0  0           0  0  0
    1.4417    0.0125    0.0000 C   0  0  0  0  0  0           0  0  0
    2.8667   -0.8167    0.0000 C   0  0  0  0  0  0           0  0  0
    0.2917   -0.2792    0.0000 O   0  0  0  0  0  0           0  0  0
    1.1417    1.1583    0.0000 O   0  0  0  0  0  0           0  0  0
    5.3667    0.0958    0.0000 C   0  0  0  0  0  0           0  0  0
    0.0000    0.8625    0.0000 N   0  0  0  0  0  0           0  0  0
    5.7042   -1.5167    0.0000 O   0  0  0  0  0  0           0  0  0
    1.4417   -0.8167    0.0000 C   0  0  0  0  0  0           0  0  0
    2.1542    0.4250    0.0000 C   0  0  0  0  0  0           0  0  0
    2.8667    0.0125    0.0000 C   0  0  0  0  0  0           0  0  0
    2.1542   -1.2292    0.0000 C   0  0  0  0  0  0           0  0  0
    5.5875    0.8958    0.0000 C   0  0  0  0  0  0           0  0  0
    3.9792    0.4583    0.0000 C   0  0  0  0  0  0           0  0  0
    6.3792    1.1125    0.0000 F   0  0  0  0  0  0           0  0  0
    5.2250   -2.4667    0.0000 C   0  0  0  0  0  0           0  0  0
    4.1417   -3.0250    0.0000 C   0  0  0  0  0  0           0  0  0
    4.1917    1.2625    0.0000 C   0  0  0  0  0  0           0  0  0
    4.9917    1.4833    0.0000 C   0  0  0  0  0  0           0  0  0
  2  1  2  0     0  0
  3  8  1  0     0  0
  4  2  1  0     0  0
  5  1  1  0     0  0
  6  5  1  0     0  0
  7  1  1  0     0  0
  8 15  2  0     0  0
  9  2  1  0     0  0
 10  3  2  0     0  0
 11  3  2  0     0  0
 12  7  2  0     0  0
 13  3  1  0     0  0
 14  5  2  0     0  0
 15 18  1  0     0  0
 16 17  2  0     0  0
 17  9  1  0     0  0
 18  9  2  0     0  0
 19 12  1  0     0  0
 20  7  1  0     0  0
 21 19  1  0     0  0
 22  6  1  0     0  0
 23  6  1  0     0  0
 24 20  2  0     0  0
 25 24  1  0     0  0
  4  6  1  0     0  0
 19 25  2  0     0  0
 16  8  1  0     0  0
M  END