@<TRIPOS>MOLECULE
ZINC00589683
   41    43     0     0     0
SMALL
USER_CHARGES

@<TRIPOS>ATOM
      1 C1         -0.3642    1.3227    0.1685 C.3       1 <0>        -0.1437
      2 C2         -0.0939   -0.1761    0.0221 C.3       1 <0>         0.0363
      3 C3          0.7745   -0.4374   -1.1908 C.2       1 <0>         0.3882
      4 O1          0.5181   -0.1848   -2.3512 O.2       1 <0>        -0.4209
      5 C4          1.9484   -1.0381   -0.6807 C.2       1 <0>        -0.2938
      6 C5          1.8361   -1.1441    0.6913 C.2       1 <0>         0.2216
      7 O2          0.6661   -0.6553    1.1374 O.3       1 <0>        -0.2536
      8 C6          2.8735   -1.7236    1.5614 C.ar      1 <0>        -0.0039
      9 C7          3.2559   -1.0646    2.7341 C.ar      1 <0>        -0.1003
     10 C8          4.2275   -1.6138    3.5438 C.ar      1 <0>        -0.0185
     11 C9          4.8242   -2.8139    3.1983 C.ar      1 <0>        -0.6573
     12 C10         4.4515   -3.4720    2.0391 C.ar      1 <0>        -0.0165
     13 C11         3.4770   -2.9387    1.2222 C.ar      1 <0>        -0.0938
     14 S1          6.0652   -3.5073    4.2393 S.o2      1 <0>         2.7002
     15 O3          6.8549   -4.3574    3.4191 O.2       1 <0>        -0.9567
     16 O4          6.6229   -2.4300    4.9794 O.2       1 <0>        -0.9573
     17 N1          5.2968   -4.4850    5.3329 N.pl3     1 <0>        -1.2486
     18 C12         3.1097   -1.4814   -1.4870 C.ar      1 <0>         0.0198
     19 C13         4.3432   -0.8457   -1.3462 C.ar      1 <0>        -0.1159
     20 C14         5.4219   -1.2619   -2.0992 C.ar      1 <0>        -0.0849
     21 C15         5.2829   -2.3080   -2.9934 C.ar      1 <0>        -0.1496
     22 C16         4.0607   -2.9441   -3.1386 C.ar      1 <0>         0.1041
     23 C17         2.9749   -2.5390   -2.3850 C.ar      1 <0>        -0.1393
     24 F1          3.9313   -3.9653   -4.0137 F         1 <0>        -0.1365
     25 C18        -1.4125   -0.9439   -0.0911 C.3       1 <0>        -0.1433
     26 H1          0.5830    1.8578    0.2369 H         1 <0>         0.0699
     27 H2         -0.9204    1.6781   -0.6989 H         1 <0>         0.0908
     28 H3         -0.9477    1.5001    1.0719 H         1 <0>         0.0836
     29 H4          2.7917   -0.1277    3.0046 H         1 <0>         0.1455
     30 H5          4.5239   -1.1060    4.4497 H         1 <0>         0.1541
     31 H6          4.9220   -4.4079    1.7760 H         1 <0>         0.1542
     32 H7          3.1838   -3.4558    0.3205 H         1 <0>         0.1432
     33 H8          4.3317   -4.5788    5.3053 H         1 <0>         0.4175
     34 H9          5.8117   -4.9639    6.0010 H         1 <0>         0.4234
     35 H10         4.4538   -0.0284   -0.6488 H         1 <0>         0.1276
     36 H11         6.3769   -0.7695   -1.9904 H         1 <0>         0.1374
     37 H12         6.1301   -2.6299   -3.5808 H         1 <0>         0.1385
     38 H13         2.0233   -3.0378   -2.4950 H         1 <0>         0.1345
     39 H14        -1.9570   -0.6029   -0.9716 H         1 <0>         0.0907
     40 H15        -1.2053   -2.0101   -0.1822 H         1 <0>         0.0699
     41 H16        -2.0144   -0.7655    0.8000 H         1 <0>         0.0836
@<TRIPOS>BOND
     1    1    2 1
     2    1   26 1
     3    1   27 1
     4    1   28 1
     5    2    7 1
     6    2    3 1
     7    2   25 1
     8    3    4 2
     9    3    5 1
    10    5    6 2
    11    5   18 1
    12    6    7 1
    13    6    8 1
    14    8   13 ar
    15    8    9 ar
    16    9   10 ar
    17    9   29 1
    18   10   11 ar
    19   10   30 1
    20   11   12 ar
    21   11   14 1
    22   12   13 ar
    23   12   31 1
    24   13   32 1
    25   14   15 2
    26   14   16 2
    27   14   17 1
    28   17   33 1
    29   17   34 1
    30   18   23 ar
    31   18   19 ar
    32   19   20 ar
    33   19   35 1
    34   20   21 ar
    35   20   36 1
    36   21   22 ar
    37   21   37 1
    38   22   23 ar
    39   22   24 1
    40   23   38 1
    41   25   39 1
    42   25   40 1
    43   25   41 1
