@<TRIPOS>MOLECULE
ZINC00057340
   32    32     0     0     0
SMALL
USER_CHARGES

@<TRIPOS>ATOM
      1 C1         -0.0173    1.4248    0.0099 C.3       1 <0>         0.0257
      2 O1          0.0021   -0.0041    0.0020 O.3       1 <0>        -0.3053
      3 C2          0.6062   -0.6075   -1.0564 C.ar      1 <0>         0.1017
      4 C3          1.1729    0.1590   -2.0621 C.ar      1 <0>        -0.1732
      5 C4          1.7870   -0.4560   -3.1371 C.ar      1 <0>        -0.1152
      6 C5          1.8372   -1.8356   -3.2121 C.ar      1 <0>        -0.1170
      7 C6          1.2734   -2.6062   -2.2124 C.ar      1 <0>        -0.1743
      8 C7          0.6617   -1.9961   -1.1290 C.ar      1 <0>         0.0980
      9 O2          0.1119   -2.7526   -0.1417 O.3       1 <0>        -0.2901
     10 C8          0.2064   -4.1715   -0.2827 C.3       1 <0>         0.0303
     11 C9         -0.4630   -4.8487    0.9148 C.3       1 <0>         0.1136
     12 H1         -1.4874   -4.4887    1.0100 H         1 <0>         0.1229
     13 C10        -0.4725   -6.3641    0.7041 C.3       1 <0>         0.0576
     14 O3         -1.1995   -6.9879    1.7645 O.3       1 <0>        -0.3524
     15 C11        -1.3026   -8.3299    1.7280 C.2       1 <0>         0.6508
     16 O4         -0.7894   -8.9542    0.8207 O.2       1 <0>        -0.5741
     17 N1         -1.9751   -8.9806    2.6980 N.am      1 <0>        -0.8229
     18 O5          0.2637   -4.5379    2.1053 O.3       1 <0>        -0.5394
     19 H2          1.0053    1.8021    0.0021 H         1 <0>         0.0553
     20 H3         -0.5445    1.7859   -0.8732 H         1 <0>         0.0551
     21 H4         -0.5275    1.7763    0.9067 H         1 <0>         0.1019
     22 H5          1.1344    1.2368   -2.0063 H         1 <0>         0.1361
     23 H6          2.2283    0.1425   -3.9203 H         1 <0>         0.1282
     24 H7          2.3175   -2.3124   -4.0537 H         1 <0>         0.1282
     25 H8          1.3136   -3.6837   -2.2735 H         1 <0>         0.1340
     26 H9         -0.2940   -4.4795   -1.2008 H         1 <0>         0.0767
     27 H10         1.2558   -4.4633   -0.3254 H         1 <0>         0.0713
     28 H11        -0.9492   -6.5955   -0.2485 H         1 <0>         0.0836
     29 H12         0.5519   -6.7365    0.6977 H         1 <0>         0.0780
     30 H13        -2.3849   -8.4822    3.4222 H         1 <0>         0.4110
     31 H14        -2.0494   -9.9474    2.6717 H         1 <0>         0.4279
     32 H15         1.1855   -4.8298    2.0910 H         1 <0>         0.3760
@<TRIPOS>BOND
     1    1    2 1
     2    1   19 1
     3    1   20 1
     4    1   21 1
     5    2    3 1
     6    3    8 ar
     7    3    4 ar
     8    4    5 ar
     9    4   22 1
    10    5    6 ar
    11    5   23 1
    12    6    7 ar
    13    6   24 1
    14    7    8 ar
    15    7   25 1
    16    8    9 1
    17    9   10 1
    18   10   11 1
    19   10   26 1
    20   10   27 1
    21   11   12 1
    22   11   13 1
    23   11   18 1
    24   13   14 1
    25   13   28 1
    26   13   29 1
    27   14   15 1
    28   15   16 2
    29   15   17 am
    30   17   30 1
    31   17   31 1
    32   18   32 1
