@<TRIPOS>MOLECULE
ZINC03871094
   23    23     0     0     0
SMALL
USER_CHARGES

@<TRIPOS>ATOM
      1 C1         -0.0184    1.5028    0.0103 C.3       1 <0>        -0.1656
      2 C2          0.0021   -0.0041    0.0020 C.2       1 <0>         0.5219
      3 O1          1.0605   -0.5961   -0.0113 O.2       1 <0>        -0.4459
      4 N1         -1.1558   -0.6938    0.0094 N.am      1 <0>        -0.5744
      5 C3         -1.1370   -2.0844    0.0017 C.cat     1 <0>         0.2834
      6 N2         -2.1488   -2.9297    0.0015 N.pl3     1 <0>        -0.2921
      7 N3         -1.9735   -4.1810   -0.0061 N.pl3     1 <0>        -0.2378
      8 C4         -0.7441   -4.6562   -0.0139 C.2       1 <0>        -0.2876
      9 S1          0.1857   -3.1297   -0.0171 S.3       1 <0>         0.7078
     10 S2         -0.1775   -6.3245   -0.0254 S.o2      1 <0>         2.4795
     11 O2          1.1346   -6.3116    0.5199 O.2       1 <0>        -0.9476
     12 O3         -1.2237   -7.1126    0.5256 O.2       1 <0>        -0.9613
     13 N4         -0.0268   -6.7795   -1.6106 N.2       1 <0>        -1.2337
     14 C5         -3.5158   -2.4029    0.0107 C.3       1 <0>        -0.0014
     15 H1          1.0042    1.8801    0.0026 H         1 <0>         0.1343
     16 H2         -0.5455    1.8639   -0.8728 H         1 <0>         0.1238
     17 H3         -0.5286    1.8543    0.9071 H         1 <0>         0.1231
     18 H4          0.2764   -7.6740   -1.8317 H         1 <0>         0.3684
     19 H5         -3.8595   -2.2664   -1.0147 H         1 <0>         0.1517
     20 H6         -4.1725   -3.1057    0.5235 H         1 <0>         0.1520
     21 H7         -3.5325   -1.4448    0.5301 H         1 <0>         0.1460
     22 H8         -2.0023   -0.2203    0.0200 H         1 <0>         0.4528
     23 H9         -2.7334   -4.7838   -0.0058 H         1 <0>         0.5027
@<TRIPOS>BOND
     1    1    2 1
     2    1   15 1
     3    1   16 1
     4    1   17 1
     5    2    3 2
     6    2    4 am
     7    4    5 1
     8    4   22 1
     9    5    9 1
    10    5    6 2
    11    6    7 1
    12    6   14 1
    13    7    8 2
    14    7   23 1
    15    8    9 1
    16    8   10 1
    17   10   11 2
    18   10   12 2
    19   10   13 1
    20   13   18 1
    21   14   19 1
    22   14   20 1
    23   14   21 1
