REMARK  3 active torsions:
REMARK  status: ('A' for Active; 'I' for Inactive)
REMARK       I    between atoms: C2_2  and  N1_4 
REMARK    1  A    between atoms: C3_5  and  N1_4 
REMARK    2  A    between atoms: C4_8  and  S2_10 
REMARK    3  A    between atoms: N4_13  and  S2_10 
ROOT
HETATM    1  C3  <0>     1       1.850  33.437  -7.450  1.00  0.00     0.197 A 
HETATM    2  N2  <0>     1       1.871  32.562  -8.436  1.00  0.00    -0.122 NA
HETATM    3  N3  <0>     1       0.998  32.565  -9.351  1.00  0.00    -0.126 NA
HETATM    4  C4  <0>     1       0.040  33.469  -9.319  1.00  0.00     0.237 A 
HETATM    5  S1  <0>     1       0.482  34.348  -7.826  1.00  0.00    -0.015 SA
ENDROOT
BRANCH   4   6
HETATM    6  S2  <0>     1      -1.303  33.733 -10.429  1.00  0.00     0.282 S 
HETATM    7  O2  <0>     1      -2.336  32.840 -10.036  1.00  0.00    -0.199 OA
HETATM    8  O3  <0>     1      -1.498  35.138 -10.505  1.00  0.00    -0.199 OA
BRANCH   6   9
HETATM    9  N4  <0>     1      -0.800  33.243 -11.929  1.00  0.00    -0.323 N 
HETATM   10  H5  <0>     1      -1.443  32.893 -12.566  1.00  0.00     0.169 HD
HETATM   11  H6  <0>     1       0.137  33.307 -12.172  1.00  0.00     0.169 HD
ENDBRANCH   6   9
ENDBRANCH   4   6
BRANCH   1  12
HETATM   12  N1  <0>     1       2.724  33.569  -6.377  1.00  0.00    -0.305 N 
HETATM   13  C2  <0>     1       3.771  32.730  -6.253  1.00  0.00     0.219 C 
HETATM   14  C1  <0>     1       4.719  32.873  -5.089  1.00  0.00     0.117 C 
HETATM   15  O1  <0>     1       3.951  31.859  -7.078  1.00  0.00    -0.274 OA
HETATM   16  H4  <0>     1       2.580  34.265  -5.717  1.00  0.00     0.171 HD
ENDBRANCH   1  12
TORSDOF 3
