@<TRIPOS>MOLECULE
ZINC01261680
   26    27     0     0     0
SMALL
USER_CHARGES

@<TRIPOS>ATOM
      1 C1         -0.0184    1.5028    0.0103 C.3       1 <0>        -0.2002
      2 C2          0.0021   -0.0041    0.0020 C.2       1 <0>         0.3328
      3 O1          0.0202   -0.6134    1.0444 O.2       1 <0>        -0.4187
      4 C3         -0.0002   -0.7505   -1.3071 C.3       1 <0>        -0.1872
      5 C4          0.0229   -2.2561   -1.0359 C.3       1 <0>         0.1613
      6 C5          0.2402   -3.0223   -2.3203 C.ar      1 <0>        -0.1400
      7 C6         -0.4829   -3.1167   -3.4881 C.ar      1 <0>        -0.0436
      8 C7         -0.0257   -3.9173   -4.5202 C.ar      1 <0>        -0.1438
      9 C8          1.1566   -4.6197   -4.3740 C.ar      1 <0>        -0.0732
     10 C9          1.8830   -4.5269   -3.2050 C.ar      1 <0>        -0.1428
     11 C10         1.4290   -3.7228   -2.1612 C.ar      1 <0>         0.1562
     12 N1          1.9744   -3.4679   -0.9025 N.am      1 <0>        -0.6624
     13 C11         1.2179   -2.6229   -0.1819 C.2       1 <0>         0.5006
     14 O2          1.4494   -2.2278    0.9412 O.2       1 <0>        -0.4539
     15 O3         -1.1902   -2.6681   -0.4029 O.3       1 <0>        -0.5267
     16 H1          1.0042    1.8801    0.0026 H         1 <0>         0.0950
     17 H2         -0.5455    1.8639   -0.8728 H         1 <0>         0.0858
     18 H3         -0.5286    1.8543    0.9071 H         1 <0>         0.0883
     19 H4         -0.8991   -0.4962   -1.8688 H         1 <0>         0.1228
     20 H5          0.8807   -0.4720   -1.8857 H         1 <0>         0.1130
     21 H6         -1.4060   -2.5669   -3.5985 H         1 <0>         0.1320
     22 H7         -0.5909   -3.9936   -5.4374 H         1 <0>         0.1339
     23 H8          1.5130   -5.2447   -5.1794 H         1 <0>         0.1347
     24 H9          2.8052   -5.0788   -3.0983 H         1 <0>         0.1302
     25 H10         2.8043   -3.8562   -0.5841 H         1 <0>         0.4148
     26 H11        -1.3623   -2.2289    0.4412 H         1 <0>         0.3912
@<TRIPOS>BOND
     1    1    2 1
     2    1   16 1
     3    1   17 1
     4    1   18 1
     5    2    3 2
     6    2    4 1
     7    4    5 1
     8    4   19 1
     9    4   20 1
    10    5   13 1
    11    5    6 1
    12    5   15 1
    13    6   11 ar
    14    6    7 ar
    15    7    8 ar
    16    7   21 1
    17    8    9 ar
    18    8   22 1
    19    9   10 ar
    20    9   23 1
    21   10   11 ar
    22   10   24 1
    23   11   12 1
    24   12   13 am
    25   12   25 1
    26   13   14 2
    27   15   26 1
