@<TRIPOS>MOLECULE
ZINC00000099
   33    33     0     0     0
SMALL
USER_CHARGES

@<TRIPOS>ATOM
      1 C1          0.1429    1.5248    0.1032 C.3       1 <0>        -0.1528
      2 C2          0.1866   -0.0046    0.1022 C.3       1 <0>         0.0535
      3 O1          0.6844   -0.4661   -1.1552 O.3       1 <0>        -0.3165
      4 C3          0.7869   -1.8116   -1.3223 C.ar      1 <0>         0.1170
      5 C4          0.4103   -2.6681   -0.2981 C.ar      1 <0>        -0.1888
      6 C5          0.5142   -4.0347   -0.4671 C.ar      1 <0>        -0.0786
      7 C6          0.9958   -4.5514   -1.6625 C.ar      1 <0>         0.1061
      8 C7          1.3725   -3.6936   -2.6872 C.ar      1 <0>        -0.1052
      9 C8          1.2628   -2.3274   -2.5189 C.ar      1 <0>        -0.1334
     10 N1          1.1019   -5.9379   -1.8344 N.am      1 <0>        -0.6762
     11 C9          0.2082   -6.7598   -1.2494 C.2       1 <0>         0.5099
     12 O2         -0.7420   -6.2974   -0.6541 O.2       1 <0>        -0.5029
     13 C10         0.3896   -8.2534   -1.3349 C.3       1 <0>        -0.1753
     14 C11        -0.7537   -8.9493   -0.5936 C.3       1 <0>         0.1175
     15 H1         -1.7080   -8.6039   -0.9913 H         1 <0>         0.1058
     16 C12        -0.6391  -10.4629   -0.7852 C.3       1 <0>        -0.1872
     17 O3         -0.6774   -8.6383    0.7991 O.3       1 <0>        -0.5483
     18 H2          1.1473    1.9171   -0.0561 H         1 <0>         0.0665
     19 H3         -0.5130    1.8700   -0.6960 H         1 <0>         0.0666
     20 H4         -0.2368    1.8768    1.0623 H         1 <0>         0.0791
     21 H5          0.8425   -0.3498    0.9015 H         1 <0>         0.0622
     22 H6         -0.8178   -0.3969    0.2616 H         1 <0>         0.0626
     23 H7          0.0361   -2.2660    0.6318 H         1 <0>         0.1311
     24 H8          0.2214   -4.7013    0.3305 H         1 <0>         0.1378
     25 H9          1.7475   -4.0949   -3.6171 H         1 <0>         0.1325
     26 H10         1.5516   -1.6602   -3.3175 H         1 <0>         0.1352
     27 H11         1.8185   -6.3061   -2.3745 H         1 <0>         0.4094
     28 H12         0.3848   -8.5607   -2.3807 H         1 <0>         0.1056
     29 H13         1.3401   -8.5307   -0.8791 H         1 <0>         0.1004
     30 H14         0.3152  -10.8083   -0.3875 H         1 <0>         0.0599
     31 H15        -1.4536  -10.9587   -0.2571 H         1 <0>         0.0697
     32 H16        -0.6973  -10.7001   -1.8475 H         1 <0>         0.0679
     33 H17         0.1472   -8.9176    1.2198 H         1 <0>         0.3691
@<TRIPOS>BOND
     1    1    2 1
     2    1   18 1
     3    1   19 1
     4    1   20 1
     5    2    3 1
     6    2   21 1
     7    2   22 1
     8    3    4 1
     9    4    9 ar
    10    4    5 ar
    11    5    6 ar
    12    5   23 1
    13    6    7 ar
    14    6   24 1
    15    7    8 ar
    16    7   10 1
    17    8    9 ar
    18    8   25 1
    19    9   26 1
    20   10   11 am
    21   10   27 1
    22   11   12 2
    23   11   13 1
    24   13   14 1
    25   13   28 1
    26   13   29 1
    27   14   15 1
    28   14   16 1
    29   14   17 1
    30   16   30 1
    31   16   31 1
    32   16   32 1
    33   17   33 1
