@<TRIPOS>MOLECULE
ZINC00000012
   35    36     0     0     0
SMALL
USER_CHARGES

@<TRIPOS>ATOM
      1 C1          0.0510    1.4926    0.0704 C.ar      1 <0>        -0.1169
      2 C2          1.2602    2.1624    0.0698 C.ar      1 <0>        -0.1197
      3 C3          2.4446    1.4506    0.0351 C.ar      1 <0>        -0.1051
      4 C4          2.4199    0.0689    0.0013 C.ar      1 <0>        -0.0633
      5 C5          1.2107   -0.6010    0.0029 C.ar      1 <0>        -0.1229
      6 C6          0.0262    0.1108    0.0362 C.ar      1 <0>        -0.1147
      7 C7          3.7112   -0.7071   -0.0376 C.3       1 <0>        -0.3476
      8 C8          3.8699   -1.4828    1.2447 C.ar      1 <0>        -0.0807
      9 C9          3.0119   -2.5282    1.5308 C.ar      1 <0>        -0.1333
     10 C10         3.1575   -3.2398    2.7070 C.ar      1 <0>        -0.1129
     11 C11         4.1614   -2.9062    3.5968 C.ar      1 <0>        -0.1198
     12 C12         5.0200   -1.8613    3.3103 C.ar      1 <0>        -0.1183
     13 C13         4.8770   -1.1526    2.1321 C.ar      1 <0>        -0.1102
     14 S1          3.6836   -1.8569   -1.4404 S.o       1 <0>         1.3270
     15 O1          2.5685   -2.7289   -1.3162 O.2       1 <0>        -0.7987
     16 C14         5.2178   -2.8077   -1.2587 C.3       1 <0>        -0.4867
     17 C15         5.3208   -3.8134   -2.3763 C.2       1 <0>         0.5537
     18 O2          4.4454   -3.8820   -3.2129 O.2       1 <0>        -0.5119
     19 N1          6.3857   -4.6366   -2.4460 N.am      1 <0>        -0.5921
     20 O3          6.4824   -5.5816   -3.4961 O.3       1 <0>        -0.3146
     21 H1         -0.8744    2.0486    0.1021 H         1 <0>         0.1230
     22 H2          1.2795    3.2419    0.0962 H         1 <0>         0.1248
     23 H3          3.3893    1.9740    0.0339 H         1 <0>         0.1260
     24 H4          1.1914   -1.6805   -0.0242 H         1 <0>         0.1396
     25 H5         -0.9185   -0.4125    0.0370 H         1 <0>         0.1235
     26 H6          4.5469   -0.0165   -0.1502 H         1 <0>         0.1392
     27 H7          2.2276   -2.7889    0.8356 H         1 <0>         0.1409
     28 H8          2.4868   -4.0561    2.9308 H         1 <0>         0.1236
     29 H9          4.2747   -3.4616    4.5161 H         1 <0>         0.1231
     30 H10         5.8040   -1.6005    4.0057 H         1 <0>         0.1244
     31 H11         5.5501   -0.3386    1.9065 H         1 <0>         0.1258
     32 H12         6.0714   -2.1311   -1.2990 H         1 <0>         0.1511
     33 H13         5.2115   -3.3281   -0.3010 H         1 <0>         0.1237
     34 H14         7.0858   -4.5817   -1.7769 H         1 <0>         0.4101
     35 H15         7.2804   -6.1267   -3.4623 H         1 <0>         0.3898
@<TRIPOS>BOND
     1    1    6 ar
     2    1    2 ar
     3    1   21 1
     4    2    3 ar
     5    2   22 1
     6    3    4 ar
     7    3   23 1
     8    4    5 ar
     9    4    7 1
    10    5    6 ar
    11    5   24 1
    12    6   25 1
    13    7    8 1
    14    7   14 1
    15    7   26 1
    16    8   13 ar
    17    8    9 ar
    18    9   10 ar
    19    9   27 1
    20   10   11 ar
    21   10   28 1
    22   11   12 ar
    23   11   29 1
    24   12   13 ar
    25   12   30 1
    26   13   31 1
    27   14   15 2
    28   14   16 1
    29   16   17 1
    30   16   32 1
    31   16   33 1
    32   17   18 2
    33   17   19 am
    34   19   20 1
    35   19   34 1
    36   20   35 1
