REMARK  6 active torsions:
REMARK  status: ('A' for Active; 'I' for Inactive)
REMARK    1  A    between atoms: C2_2  and  O1_3 
REMARK    2  A    between atoms: C3_4  and  O1_3 
REMARK    3  A    between atoms: C6_7  and  N1_10 
REMARK       I    between atoms: C9_11  and  N1_10 
REMARK    4  A    between atoms: C10_13  and  C9_11 
REMARK    5  A    between atoms: C10_13  and  C11_14 
REMARK    6  A    between atoms: C11_14  and  O3_16 
ROOT
HETATM    1  C3  <0>     1      24.858 -25.457 -11.296  1.00  0.00     0.068 A 
HETATM    2  C4  <0>     1      24.090 -26.061 -10.312  1.00  0.00     0.039 A 
HETATM    3  C5  <0>     1      24.699 -26.625  -9.209  1.00  0.00     0.032 A 
HETATM    4  C6  <0>     1      26.082 -26.587  -9.084  1.00  0.00     0.034 A 
HETATM    5  C7  <0>     1      26.850 -25.981 -10.069  1.00  0.00     0.032 A 
HETATM    6  C8  <0>     1      26.240 -25.423 -11.175  1.00  0.00     0.039 A 
ENDROOT
BRANCH   4   7
HETATM    7  N1  <0>     1      26.701 -27.158  -7.965  1.00  0.00    -0.327 N 
HETATM    8  C9  <0>     1      26.169 -28.253  -7.386  1.00  0.00     0.224 C 
HETATM    9  O2  <0>     1      25.211 -28.800  -7.890  1.00  0.00    -0.273 OA
HETATM   10  H11 <0>     1      27.512 -26.765  -7.606  1.00  0.00     0.169 HD
BRANCH   8  11
HETATM   11  C10 <0>     1      26.765 -28.798  -6.114  1.00  0.00     0.134 C 
BRANCH  11  12
HETATM   12  C11 <0>     1      25.980 -30.035  -5.672  1.00  0.00     0.122 C 
HETATM   13  C12 <0>     1      26.659 -30.660  -4.452  1.00  0.00     0.040 C 
BRANCH  12  14
HETATM   14  O3  <0>     1      24.645 -29.656  -5.332  1.00  0.00    -0.395 OA
HETATM   15  H17 <0>     1      24.590 -29.011  -4.613  1.00  0.00     0.210 HD
ENDBRANCH  12  14
ENDBRANCH  11  12
ENDBRANCH   8  11
ENDBRANCH   4   7
BRANCH   1  16
HETATM   16  O1  <0>     1      24.258 -24.901 -12.382  1.00  0.00    -0.352 OA
BRANCH  16  17
HETATM   17  C2  <0>     1      22.832 -24.972 -12.442  1.00  0.00     0.171 C 
HETATM   18  C1  <0>     1      22.341 -24.300 -13.726  1.00  0.00     0.034 C 
ENDBRANCH  16  17
ENDBRANCH   1  16
TORSDOF 6
