MODEL 1
REMARK VINA RESULT:      -5.5      0.000      0.000
REMARK  6 active torsions:
REMARK  status: ('A' for Active; 'I' for Inactive)
REMARK    1  A    between atoms: C2_2  and  O1_3 
REMARK    2  A    between atoms: C3_4  and  O1_3 
REMARK    3  A    between atoms: C6_7  and  N1_10 
REMARK       I    between atoms: C9_11  and  N1_10 
REMARK    4  A    between atoms: C10_13  and  C9_11 
REMARK    5  A    between atoms: C10_13  and  C11_14 
REMARK    6  A    between atoms: C11_14  and  O3_16 
ROOT
HETATM    1  C3  <0>     1      34.281  15.570 -17.131  1.00  0.00     0.068 A 
HETATM    2  C4  <0>     1      34.813  16.324 -18.167  1.00  0.00     0.039 A 
HETATM    3  C5  <0>     1      34.637  15.922 -19.476  1.00  0.00     0.032 A 
HETATM    4  C6  <0>     1      33.925  14.763 -19.756  1.00  0.00     0.034 A 
HETATM    5  C7  <0>     1      33.391  14.010 -18.719  1.00  0.00     0.032 A 
HETATM    6  C8  <0>     1      33.574  14.409 -17.410  1.00  0.00     0.039 A 
ENDROOT
BRANCH   4   7
HETATM    7  N1  <0>     1      33.744  14.354 -21.083  1.00  0.00    -0.327 N 
HETATM    8  C9  <0>     1      32.569  14.580 -21.704  1.00  0.00     0.224 C 
HETATM    9  O2  <0>     1      31.702  15.220 -21.147  1.00  0.00    -0.273 OA
HETATM   10  H11 <0>     1      34.464  13.909 -21.556  1.00  0.00     0.169 HD
BRANCH   8  11
HETATM   11  C10 <0>     1      32.331  14.037 -23.089  1.00  0.00     0.134 C 
BRANCH  11  12
HETATM   12  C11 <0>     1      32.640  15.123 -24.122  1.00  0.00     0.122 C 
HETATM   13  C12 <0>     1      31.334  15.620 -24.745  1.00  0.00     0.040 C 
BRANCH  12  14
HETATM   14  O3  <0>     1      33.308  16.213 -23.483  1.00  0.00    -0.395 OA
HETATM   15  H17 <0>     1      33.299  17.034 -23.994  1.00  0.00     0.210 HD
ENDBRANCH  12  14
ENDBRANCH  11  12
ENDBRANCH   8  11
ENDBRANCH   4   7
BRANCH   1  16
HETATM   16  O1  <0>     1      34.455  15.967 -15.842  1.00  0.00    -0.352 OA
BRANCH  16  17
HETATM   17  C2  <0>     1      33.991  17.274 -15.498  1.00  0.00     0.171 C 
HETATM   18  C1  <0>     1      32.466  17.259 -15.379  1.00  0.00     0.034 C 
ENDBRANCH  16  17
ENDBRANCH   1  16
TORSDOF 6
ENDMDL
MODEL 2
REMARK VINA RESULT:      -5.5      1.555      1.994
REMARK  6 active torsions:
REMARK  status: ('A' for Active; 'I' for Inactive)
REMARK    1  A    between atoms: C2_2  and  O1_3 
REMARK    2  A    between atoms: C3_4  and  O1_3 
REMARK    3  A    between atoms: C6_7  and  N1_10 
REMARK       I    between atoms: C9_11  and  N1_10 
REMARK    4  A    between atoms: C10_13  and  C9_11 
REMARK    5  A    between atoms: C10_13  and  C11_14 
REMARK    6  A    between atoms: C11_14  and  O3_16 
ROOT
HETATM    1  C3  <0>     1      34.451  15.811 -17.491  1.00  0.00     0.068 A 
HETATM    2  C4  <0>     1      33.751  14.616 -17.428  1.00  0.00     0.039 A 
HETATM    3  C5  <0>     1      33.372  13.976 -18.591  1.00  0.00     0.032 A 
HETATM    4  C6  <0>     1      33.691  14.529 -19.824  1.00  0.00     0.034 A 
HETATM    5  C7  <0>     1      34.393  15.726 -19.886  1.00  0.00     0.032 A 
HETATM    6  C8  <0>     1      34.766  16.368 -18.722  1.00  0.00     0.039 A 
ENDROOT
BRANCH   4   7
HETATM    7  N1  <0>     1      33.308  13.880 -21.005  1.00  0.00    -0.327 N 
HETATM    8  C9  <0>     1      34.205  13.147 -21.693  1.00  0.00     0.224 C 
HETATM    9  O2  <0>     1      35.317  12.970 -21.242  1.00  0.00    -0.273 OA
HETATM   10  H11 <0>     1      32.396  13.959 -21.327  1.00  0.00     0.169 HD
BRANCH   8  11
HETATM   11  C10 <0>     1      33.827  12.547 -23.023  1.00  0.00     0.134 C 
BRANCH  11  12
HETATM   12  C11 <0>     1      33.822  13.641 -24.093  1.00  0.00     0.122 C 
HETATM   13  C12 <0>     1      32.381  13.928 -24.520  1.00  0.00     0.040 C 
BRANCH  12  14
HETATM   14  O3  <0>     1      34.408  14.831 -23.562  1.00  0.00    -0.395 OA
HETATM   15  H17 <0>     1      35.357  14.759 -23.389  1.00  0.00     0.210 HD
ENDBRANCH  12  14
ENDBRANCH  11  12
ENDBRANCH   8  11
ENDBRANCH   4   7
BRANCH   1  16
HETATM   16  O1  <0>     1      34.825  16.441 -16.345  1.00  0.00    -0.352 OA
BRANCH  16  17
HETATM   17  C2  <0>     1      33.974  16.280 -15.209  1.00  0.00     0.171 C 
HETATM   18  C1  <0>     1      32.719  17.137 -15.386  1.00  0.00     0.034 C 
ENDBRANCH  16  17
ENDBRANCH   1  16
TORSDOF 6
ENDMDL
MODEL 3
REMARK VINA RESULT:      -5.3      2.179      2.559
REMARK  6 active torsions:
REMARK  status: ('A' for Active; 'I' for Inactive)
REMARK    1  A    between atoms: C2_2  and  O1_3 
REMARK    2  A    between atoms: C3_4  and  O1_3 
REMARK    3  A    between atoms: C6_7  and  N1_10 
REMARK       I    between atoms: C9_11  and  N1_10 
REMARK    4  A    between atoms: C10_13  and  C9_11 
REMARK    5  A    between atoms: C10_13  and  C11_14 
REMARK    6  A    between atoms: C11_14  and  O3_16 
ROOT
HETATM    1  C3  <0>     1      33.823  15.061 -17.301  1.00  0.00     0.068 A 
HETATM    2  C4  <0>     1      32.968  14.248 -18.028  1.00  0.00     0.039 A 
HETATM    3  C5  <0>     1      33.061  14.204 -19.405  1.00  0.00     0.032 A 
HETATM    4  C6  <0>     1      34.013  14.973 -20.062  1.00  0.00     0.034 A 
HETATM    5  C7  <0>     1      34.870  15.786 -19.332  1.00  0.00     0.032 A 
HETATM    6  C8  <0>     1      34.771  15.835 -17.956  1.00  0.00     0.039 A 
ENDROOT
BRANCH   4   7
HETATM    7  N1  <0>     1      34.109  14.928 -21.458  1.00  0.00    -0.327 N 
HETATM    8  C9  <0>     1      34.878  13.993 -22.051  1.00  0.00     0.224 C 
HETATM    9  O2  <0>     1      35.410  13.133 -21.382  1.00  0.00    -0.273 OA
HETATM   10  H11 <0>     1      33.623  15.570 -21.999  1.00  0.00     0.169 HD
BRANCH   8  11
HETATM   11  C10 <0>     1      35.077  14.017 -23.544  1.00  0.00     0.134 C 
BRANCH  11  12
HETATM   12  C11 <0>     1      36.225  14.968 -23.891  1.00  0.00     0.122 C 
HETATM   13  C12 <0>     1      35.654  16.263 -24.472  1.00  0.00     0.040 C 
BRANCH  12  14
HETATM   14  O3  <0>     1      36.972  15.264 -22.710  1.00  0.00    -0.395 OA
HETATM   15  H17 <0>     1      36.535  14.995 -21.890  1.00  0.00     0.210 HD
ENDBRANCH  12  14
ENDBRANCH  11  12
ENDBRANCH   8  11
ENDBRANCH   4   7
BRANCH   1  16
HETATM   16  O1  <0>     1      33.731  15.105 -15.945  1.00  0.00    -0.352 OA
BRANCH  16  17
HETATM   17  C2  <0>     1      33.898  16.381 -15.324  1.00  0.00     0.171 C 
HETATM   18  C1  <0>     1      32.578  17.153 -15.382  1.00  0.00     0.034 C 
ENDBRANCH  16  17
ENDBRANCH   1  16
TORSDOF 6
ENDMDL
MODEL 4
REMARK VINA RESULT:      -5.0      1.591      2.101
REMARK  6 active torsions:
REMARK  status: ('A' for Active; 'I' for Inactive)
REMARK    1  A    between atoms: C2_2  and  O1_3 
REMARK    2  A    between atoms: C3_4  and  O1_3 
REMARK    3  A    between atoms: C6_7  and  N1_10 
REMARK       I    between atoms: C9_11  and  N1_10 
REMARK    4  A    between atoms: C10_13  and  C9_11 
REMARK    5  A    between atoms: C10_13  and  C11_14 
REMARK    6  A    between atoms: C11_14  and  O3_16 
ROOT
HETATM    1  C3  <0>     1      34.112  15.086 -18.765  1.00  0.00     0.068 A 
HETATM    2  C4  <0>     1      34.671  16.116 -19.505  1.00  0.00     0.039 A 
HETATM    3  C5  <0>     1      34.355  16.258 -20.841  1.00  0.00     0.032 A 
HETATM    4  C6  <0>     1      33.475  15.368 -21.445  1.00  0.00     0.034 A 
HETATM    5  C7  <0>     1      32.915  14.337 -20.703  1.00  0.00     0.032 A 
HETATM    6  C8  <0>     1      33.237  14.193 -19.368  1.00  0.00     0.039 A 
ENDROOT
BRANCH   4   7
HETATM    7  N1  <0>     1      33.153  15.511 -22.801  1.00  0.00    -0.327 N 
HETATM    8  C9  <0>     1      31.894  15.827 -23.164  1.00  0.00     0.224 C 
HETATM    9  O2  <0>     1      31.064  16.082 -22.317  1.00  0.00    -0.273 OA
HETATM   10  H11 <0>     1      33.836  15.382 -23.478  1.00  0.00     0.169 HD
BRANCH   8  11
HETATM   11  C10 <0>     1      31.518  15.865 -24.623  1.00  0.00     0.134 C 
BRANCH  11  12
HETATM   12  C11 <0>     1      31.196  14.448 -25.103  1.00  0.00     0.122 C 
HETATM   13  C12 <0>     1      32.292  13.974 -26.059  1.00  0.00     0.040 C 
BRANCH  12  14
HETATM   14  O3  <0>     1      31.129  13.567 -23.980  1.00  0.00    -0.395 OA
HETATM   15  H17 <0>     1      30.353  12.990 -23.979  1.00  0.00     0.210 HD
ENDBRANCH  12  14
ENDBRANCH  11  12
ENDBRANCH   8  11
ENDBRANCH   4   7
BRANCH   1  16
HETATM   16  O1  <0>     1      34.423  14.947 -17.449  1.00  0.00    -0.352 OA
BRANCH  16  17
HETATM   17  C2  <0>     1      33.402  15.273 -16.504  1.00  0.00     0.171 C 
HETATM   18  C1  <0>     1      34.044  15.813 -15.224  1.00  0.00     0.034 C 
ENDBRANCH  16  17
ENDBRANCH   1  16
TORSDOF 6
ENDMDL
MODEL 5
REMARK VINA RESULT:      -4.8      2.399      4.006
REMARK  6 active torsions:
REMARK  status: ('A' for Active; 'I' for Inactive)
REMARK    1  A    between atoms: C2_2  and  O1_3 
REMARK    2  A    between atoms: C3_4  and  O1_3 
REMARK    3  A    between atoms: C6_7  and  N1_10 
REMARK       I    between atoms: C9_11  and  N1_10 
REMARK    4  A    between atoms: C10_13  and  C9_11 
REMARK    5  A    between atoms: C10_13  and  C11_14 
REMARK    6  A    between atoms: C11_14  and  O3_16 
ROOT
HETATM    1  C3  <0>     1      33.101  14.522 -20.630  1.00  0.00     0.068 A 
HETATM    2  C4  <0>     1      31.766  14.357 -20.964  1.00  0.00     0.039 A 
HETATM    3  C5  <0>     1      31.252  14.978 -22.085  1.00  0.00     0.032 A 
HETATM    4  C6  <0>     1      32.074  15.768 -22.879  1.00  0.00     0.034 A 
HETATM    5  C7  <0>     1      33.411  15.932 -22.544  1.00  0.00     0.032 A 
HETATM    6  C8  <0>     1      33.922  15.315 -21.419  1.00  0.00     0.039 A 
ENDROOT
BRANCH   4   7
HETATM    7  N1  <0>     1      31.554  16.398 -24.017  1.00  0.00    -0.327 N 
HETATM    8  C9  <0>     1      31.573  15.763 -25.206  1.00  0.00     0.224 C 
HETATM    9  O2  <0>     1      31.951  14.613 -25.273  1.00  0.00    -0.273 OA
HETATM   10  H11 <0>     1      31.181  17.291 -23.949  1.00  0.00     0.169 HD
BRANCH   8  11
HETATM   11  C10 <0>     1      31.124  16.483 -26.452  1.00  0.00     0.134 C 
BRANCH  11  12
HETATM   12  C11 <0>     1      32.348  16.992 -27.216  1.00  0.00     0.122 C 
HETATM   13  C12 <0>     1      32.065  18.396 -27.754  1.00  0.00     0.040 C 
BRANCH  12  14
HETATM   14  O3  <0>     1      33.474  17.037 -26.337  1.00  0.00    -0.395 OA
HETATM   15  H17 <0>     1      33.617  17.900 -25.924  1.00  0.00     0.210 HD
ENDBRANCH  12  14
ENDBRANCH  11  12
ENDBRANCH   8  11
ENDBRANCH   4   7
BRANCH   1  16
HETATM   16  O1  <0>     1      33.607  13.910 -19.526  1.00  0.00    -0.352 OA
BRANCH  16  17
HETATM   17  C2  <0>     1      34.019  14.753 -18.449  1.00  0.00     0.171 C 
HETATM   18  C1  <0>     1      33.045  14.600 -17.279  1.00  0.00     0.034 C 
ENDBRANCH  16  17
ENDBRANCH   1  16
TORSDOF 6
ENDMDL
MODEL 6
REMARK VINA RESULT:      -4.7      1.841      6.874
REMARK  6 active torsions:
REMARK  status: ('A' for Active; 'I' for Inactive)
REMARK    1  A    between atoms: C2_2  and  O1_3 
REMARK    2  A    between atoms: C3_4  and  O1_3 
REMARK    3  A    between atoms: C6_7  and  N1_10 
REMARK       I    between atoms: C9_11  and  N1_10 
REMARK    4  A    between atoms: C10_13  and  C9_11 
REMARK    5  A    between atoms: C10_13  and  C11_14 
REMARK    6  A    between atoms: C11_14  and  O3_16 
ROOT
HETATM    1  C3  <0>     1      31.760  14.763 -23.875  1.00  0.00     0.068 A 
HETATM    2  C4  <0>     1      31.060  13.965 -22.983  1.00  0.00     0.039 A 
HETATM    3  C5  <0>     1      31.403  13.958 -21.646  1.00  0.00     0.032 A 
HETATM    4  C6  <0>     1      32.450  14.751 -21.193  1.00  0.00     0.034 A 
HETATM    5  C7  <0>     1      33.150  15.551 -22.087  1.00  0.00     0.032 A 
HETATM    6  C8  <0>     1      32.810  15.552 -23.425  1.00  0.00     0.039 A 
ENDROOT
BRANCH   4   7
HETATM    7  N1  <0>     1      32.798  14.745 -19.837  1.00  0.00    -0.327 N 
HETATM    8  C9  <0>     1      33.772  13.924 -19.394  1.00  0.00     0.224 C 
HETATM    9  O2  <0>     1      34.411  13.262 -20.184  1.00  0.00    -0.273 OA
HETATM   10  H11 <0>     1      32.339  15.332 -19.215  1.00  0.00     0.169 HD
BRANCH   8  11
HETATM   11  C10 <0>     1      34.066  13.831 -17.920  1.00  0.00     0.134 C 
BRANCH  11  12
HETATM   12  C11 <0>     1      33.673  15.142 -17.237  1.00  0.00     0.122 C 
HETATM   13  C12 <0>     1      33.845  15.000 -15.723  1.00  0.00     0.040 C 
BRANCH  12  14
HETATM   14  O3  <0>     1      34.510  16.198 -17.714  1.00  0.00    -0.395 OA
HETATM   15  H17 <0>     1      34.903  16.027 -18.582  1.00  0.00     0.210 HD
ENDBRANCH  12  14
ENDBRANCH  11  12
ENDBRANCH   8  11
ENDBRANCH   4   7
BRANCH   1  16
HETATM   16  O1  <0>     1      31.422  14.771 -25.192  1.00  0.00    -0.352 OA
BRANCH  16  17
HETATM   17  C2  <0>     1      31.097  13.512 -25.785  1.00  0.00     0.171 C 
HETATM   18  C1  <0>     1      32.385  12.774 -26.155  1.00  0.00     0.034 C 
ENDBRANCH  16  17
ENDBRANCH   1  16
TORSDOF 6
ENDMDL
MODEL 7
REMARK VINA RESULT:      -4.7      2.294      7.186
REMARK  6 active torsions:
REMARK  status: ('A' for Active; 'I' for Inactive)
REMARK    1  A    between atoms: C2_2  and  O1_3 
REMARK    2  A    between atoms: C3_4  and  O1_3 
REMARK    3  A    between atoms: C6_7  and  N1_10 
REMARK       I    between atoms: C9_11  and  N1_10 
REMARK    4  A    between atoms: C10_13  and  C9_11 
REMARK    5  A    between atoms: C10_13  and  C11_14 
REMARK    6  A    between atoms: C11_14  and  O3_16 
ROOT
HETATM    1  C3  <0>     1      31.687  14.607 -25.175  1.00  0.00     0.068 A 
HETATM    2  C4  <0>     1      31.782  13.582 -24.246  1.00  0.00     0.039 A 
HETATM    3  C5  <0>     1      32.174  13.856 -22.951  1.00  0.00     0.032 A 
HETATM    4  C6  <0>     1      32.473  15.160 -22.577  1.00  0.00     0.034 A 
HETATM    5  C7  <0>     1      32.376  16.186 -23.507  1.00  0.00     0.032 A 
HETATM    6  C8  <0>     1      31.991  15.910 -24.804  1.00  0.00     0.039 A 
ENDROOT
BRANCH   4   7
HETATM    7  N1  <0>     1      32.869  15.440 -21.264  1.00  0.00    -0.327 N 
HETATM    8  C9  <0>     1      34.180  15.489 -20.951  1.00  0.00     0.224 C 
HETATM    9  O2  <0>     1      35.015  15.386 -21.825  1.00  0.00    -0.273 OA
HETATM   10  H11 <0>     1      32.201  15.598 -20.578  1.00  0.00     0.169 HD
BRANCH   8  11
HETATM   11  C10 <0>     1      34.607  15.671 -19.518  1.00  0.00     0.134 C 
BRANCH  11  12
HETATM   12  C11 <0>     1      34.509  14.333 -18.782  1.00  0.00     0.122 C 
HETATM   13  C12 <0>     1      33.252  14.323 -17.910  1.00  0.00     0.040 C 
BRANCH  12  14
HETATM   14  O3  <0>     1      34.437  13.270 -19.733  1.00  0.00    -0.395 OA
HETATM   15  H17 <0>     1      35.164  13.263 -20.372  1.00  0.00     0.210 HD
ENDBRANCH  12  14
ENDBRANCH  11  12
ENDBRANCH   8  11
ENDBRANCH   4   7
BRANCH   1  16
HETATM   16  O1  <0>     1      31.301  14.337 -26.450  1.00  0.00    -0.352 OA
BRANCH  16  17
HETATM   17  C2  <0>     1      30.946  15.452 -27.270  1.00  0.00     0.171 C 
HETATM   18  C1  <0>     1      29.423  15.535 -27.389  1.00  0.00     0.034 C 
ENDBRANCH  16  17
ENDBRANCH   1  16
TORSDOF 6
ENDMDL
MODEL 8
REMARK VINA RESULT:      -4.7      2.487      6.684
REMARK  6 active torsions:
REMARK  status: ('A' for Active; 'I' for Inactive)
REMARK    1  A    between atoms: C2_2  and  O1_3 
REMARK    2  A    between atoms: C3_4  and  O1_3 
REMARK    3  A    between atoms: C6_7  and  N1_10 
REMARK       I    between atoms: C9_11  and  N1_10 
REMARK    4  A    between atoms: C10_13  and  C9_11 
REMARK    5  A    between atoms: C10_13  and  C11_14 
REMARK    6  A    between atoms: C11_14  and  O3_16 
ROOT
HETATM    1  C3  <0>     1      34.154  13.060 -22.771  1.00  0.00     0.068 A 
HETATM    2  C4  <0>     1      35.413  13.577 -22.503  1.00  0.00     0.039 A 
HETATM    3  C5  <0>     1      35.563  14.577 -21.564  1.00  0.00     0.032 A 
HETATM    4  C6  <0>     1      34.454  15.067 -20.887  1.00  0.00     0.034 A 
HETATM    5  C7  <0>     1      33.194  14.548 -21.156  1.00  0.00     0.032 A 
HETATM    6  C8  <0>     1      33.044  13.552 -22.100  1.00  0.00     0.039 A 
ENDROOT
BRANCH   4   7
HETATM    7  N1  <0>     1      34.605  16.082 -19.934  1.00  0.00    -0.327 N 
HETATM    8  C9  <0>     1      34.745  15.766 -18.630  1.00  0.00     0.224 C 
HETATM    9  O2  <0>     1      34.836  14.605 -18.295  1.00  0.00    -0.273 OA
HETATM   10  H11 <0>     1      34.608  17.011 -20.211  1.00  0.00     0.169 HD
BRANCH   8  11
HETATM   11  C10 <0>     1      34.789  16.857 -17.592  1.00  0.00     0.134 C 
BRANCH  11  12
HETATM   12  C11 <0>     1      34.362  16.288 -16.237  1.00  0.00     0.122 C 
HETATM   13  C12 <0>     1      34.387  17.401 -15.187  1.00  0.00     0.040 C 
BRANCH  12  14
HETATM   14  O3  <0>     1      33.039  15.758 -16.338  1.00  0.00    -0.395 OA
HETATM   15  H17 <0>     1      32.424  16.106 -15.677  1.00  0.00     0.210 HD
ENDBRANCH  12  14
ENDBRANCH  11  12
ENDBRANCH   8  11
ENDBRANCH   4   7
BRANCH   1  16
HETATM   16  O1  <0>     1      34.006  12.074 -23.696  1.00  0.00    -0.352 OA
BRANCH  16  17
HETATM   17  C2  <0>     1      35.009  11.056 -23.723  1.00  0.00     0.171 C 
HETATM   18  C1  <0>     1      34.399   9.727 -23.272  1.00  0.00     0.034 C 
ENDBRANCH  16  17
ENDBRANCH   1  16
TORSDOF 6
ENDMDL
MODEL 9
REMARK VINA RESULT:      -4.5      3.153      6.641
REMARK  6 active torsions:
REMARK  status: ('A' for Active; 'I' for Inactive)
REMARK    1  A    between atoms: C2_2  and  O1_3 
REMARK    2  A    between atoms: C3_4  and  O1_3 
REMARK    3  A    between atoms: C6_7  and  N1_10 
REMARK       I    between atoms: C9_11  and  N1_10 
REMARK    4  A    between atoms: C10_13  and  C9_11 
REMARK    5  A    between atoms: C10_13  and  C11_14 
REMARK    6  A    between atoms: C11_14  and  O3_16 
ROOT
HETATM    1  C3  <0>     1      36.160  13.908 -23.207  1.00  0.00     0.068 A 
HETATM    2  C4  <0>     1      35.215  12.938 -22.911  1.00  0.00     0.039 A 
HETATM    3  C5  <0>     1      34.696  12.845 -21.635  1.00  0.00     0.032 A 
HETATM    4  C6  <0>     1      35.120  13.725 -20.647  1.00  0.00     0.034 A 
HETATM    5  C7  <0>     1      36.066  14.697 -20.945  1.00  0.00     0.032 A 
HETATM    6  C8  <0>     1      36.589  14.784 -22.220  1.00  0.00     0.039 A 
ENDROOT
BRANCH   4   7
HETATM    7  N1  <0>     1      34.594  13.633 -19.353  1.00  0.00    -0.327 N 
HETATM    8  C9  <0>     1      33.422  14.231 -19.057  1.00  0.00     0.224 C 
HETATM    9  O2  <0>     1      32.778  14.767 -19.934  1.00  0.00    -0.273 OA
HETATM   10  H11 <0>     1      35.072  13.139 -18.668  1.00  0.00     0.169 HD
BRANCH   8  11
HETATM   11  C10 <0>     1      32.914  14.234 -17.639  1.00  0.00     0.134 C 
BRANCH  11  12
HETATM   12  C11 <0>     1      33.436  15.475 -16.912  1.00  0.00     0.122 C 
HETATM   13  C12 <0>     1      33.946  15.076 -15.526  1.00  0.00     0.040 C 
BRANCH  12  14
HETATM   14  O3  <0>     1      34.504  16.054 -17.664  1.00  0.00    -0.395 OA
HETATM   15  H17 <0>     1      34.475  17.020 -17.709  1.00  0.00     0.210 HD
ENDBRANCH  12  14
ENDBRANCH  11  12
ENDBRANCH   8  11
ENDBRANCH   4   7
BRANCH   1  16
HETATM   16  O1  <0>     1      36.671  14.000 -24.464  1.00  0.00    -0.352 OA
BRANCH  16  17
HETATM   17  C2  <0>     1      38.094  14.045 -24.584  1.00  0.00     0.171 C 
HETATM   18  C1  <0>     1      38.635  12.627 -24.776  1.00  0.00     0.034 C 
ENDBRANCH  16  17
ENDBRANCH   1  16
TORSDOF 6
ENDMDL
