REMARK  3 active torsions:
REMARK  status: ('A' for Active; 'I' for Inactive)
REMARK    1  A    between atoms: C2_2  and  C3_4 
REMARK    2  A    between atoms: C3_4  and  C4_5 
REMARK    3  A    between atoms: C4_5  and  O3_15 
ROOT
HETATM    1  C4  <0>     1       0.023  -2.256  -1.036  1.00  0.00     0.174 A 
HETATM    2  C5  <0>     1       0.240  -3.022  -2.320  1.00  0.00     0.013 A 
HETATM    3  C6  <0>     1      -0.483  -3.117  -3.488  1.00  0.00     0.013 A 
HETATM    4  C7  <0>     1      -0.026  -3.917  -4.520  1.00  0.00     0.001 A 
HETATM    5  C8  <0>     1       1.157  -4.620  -4.374  1.00  0.00     0.002 A 
HETATM    6  C9  <0>     1       1.883  -4.527  -3.205  1.00  0.00     0.030 A 
HETATM    7  C10 <0>     1       1.429  -3.723  -2.161  1.00  0.00     0.044 A 
HETATM    8  N1  <0>     1       1.974  -3.468  -0.903  1.00  0.00    -0.324 N 
HETATM    9  C11 <0>     1       1.218  -2.623  -0.182  1.00  0.00     0.262 A 
HETATM   10  O2  <0>     1       1.449  -2.228   0.941  1.00  0.00    -0.269 OA
HETATM   11  H10 <0>     1       2.804  -3.856  -0.584  1.00  0.00     0.169 HD
ENDROOT
BRANCH   1  12
HETATM   12  C3  <0>     1      -0.000  -0.750  -1.307  1.00  0.00     0.131 C 
BRANCH  12  13
HETATM   13  C2  <0>     1       0.002  -0.004   0.002  1.00  0.00     0.126 C 
HETATM   14  C1  <0>     1      -0.018   1.503   0.010  1.00  0.00     0.091 C 
HETATM   15  O1  <0>     1       0.020  -0.613   1.044  1.00  0.00    -0.298 OA
ENDBRANCH  12  13
ENDBRANCH   1  12
BRANCH   1  16
HETATM   16  O3  <0>     1      -1.190  -2.668  -0.403  1.00  0.00    -0.375 OA
HETATM   17  H11 <0>     1      -1.362  -2.229   0.441  1.00  0.00     0.211 HD
ENDBRANCH   1  16
TORSDOF 3
