REMARK  4 active torsions:
REMARK  status: ('A' for Active; 'I' for Inactive)
REMARK    1  A    between atoms: C12_18  and  C4_5 
REMARK    2  A    between atoms: C5_6  and  C6_8 
REMARK    3  A    between atoms: C9_11  and  S1_14 
REMARK    4  A    between atoms: N1_17  and  S1_14 
ROOT
HETATM    1  C1  <0>     1      -0.629   1.323  -0.669  1.00  0.00     0.055 C 
HETATM    2  C2  <0>     1      -0.356  -0.176  -0.810  1.00  0.00     0.125 A 
HETATM    3  C3  <0>     1       0.539  -0.437  -2.003  1.00  0.00     0.197 A 
HETATM    4  O1  <0>     1       0.308  -0.185  -3.169  1.00  0.00    -0.289 OA
HETATM    5  C4  <0>     1       1.701  -1.038  -1.468  1.00  0.00     0.058 A 
HETATM    6  C5  <0>     1       1.559  -1.144  -0.098  1.00  0.00     0.095 A 
HETATM    7  O2  <0>     1       0.380  -0.655   0.322  1.00  0.00    -0.331 OA
HETATM    8  C18 <0>     1      -1.672  -0.944  -0.952  1.00  0.00     0.055 C 
ENDROOT
BRANCH   6   9
HETATM    9  C6  <0>     1       2.577  -1.724   0.794  1.00  0.00    -0.002 A 
HETATM   10  C11 <0>     1       3.188  -2.939   0.468  1.00  0.00     0.016 A 
HETATM   11  C10 <0>     1       4.144  -3.472   1.306  1.00  0.00     0.026 A 
HETATM   12  C9  <0>     1       4.491  -2.814   2.474  1.00  0.00     0.079 A 
HETATM   13  C8  <0>     1       3.887  -1.614   2.806  1.00  0.00     0.026 A 
HETATM   14  C7  <0>     1       2.934  -1.065   1.975  1.00  0.00     0.016 A 
BRANCH  12  15
HETATM   15  S1  <0>     1       5.709  -3.507   3.542  1.00  0.00     0.256 S 
HETATM   16  O3  <0>     1       6.517  -4.357   2.739  1.00  0.00    -0.201 OA
HETATM   17  O4  <0>     1       6.251  -2.430   4.294  1.00  0.00    -0.201 OA
BRANCH  15  18
HETATM   18  N1  <0>     1       4.917  -4.485   4.618  1.00  0.00    -0.324 N 
HETATM   19  H8  <0>     1       3.953  -4.579   4.569  1.00  0.00     0.169 HD
HETATM   20  H9  <0>     1       5.417  -4.964   5.297  1.00  0.00     0.169 HD
ENDBRANCH  15  18
ENDBRANCH  12  15
ENDBRANCH   6   9
BRANCH   5  21
HETATM   21  C12 <0>     1       2.880  -1.481  -2.248  1.00  0.00    -0.017 A 
HETATM   22  C13 <0>     1       4.110  -0.846  -2.080  1.00  0.00     0.012 A 
HETATM   23  C14 <0>     1       5.205  -1.262  -2.810  1.00  0.00     0.004 A 
HETATM   24  C15 <0>     1       5.086  -2.308  -3.707  1.00  0.00     0.042 A 
HETATM   25  C16 <0>     1       3.867  -2.944  -3.879  1.00  0.00     0.117 A 
HETATM   26  C17 <0>     1       2.765  -2.539  -3.149  1.00  0.00     0.054 A 
HETATM   27  F1  <0>     1       3.757  -3.965  -4.756  1.00  0.00    -0.206 F 
ENDBRANCH   5  21
TORSDOF 4
