MODEL 1
REMARK VINA RESULT:      -6.8      0.000      0.000
REMARK  4 active torsions:
REMARK  status: ('A' for Active; 'I' for Inactive)
REMARK    1  A    between atoms: C12_18  and  C4_5 
REMARK    2  A    between atoms: C5_6  and  C6_8 
REMARK    3  A    between atoms: C9_11  and  S1_14 
REMARK    4  A    between atoms: N1_17  and  S1_14 
ROOT
HETATM    1  C1  <0>     1      36.843  12.260 -23.776  1.00  0.00     0.055 C 
HETATM    2  C2  <0>     1      36.561  13.735 -23.482  1.00  0.00     0.125 A 
HETATM    3  C3  <0>     1      35.166  14.105 -23.943  1.00  0.00     0.197 A 
HETATM    4  O1  <0>     1      34.725  14.059 -25.074  1.00  0.00    -0.289 OA
HETATM    5  C4  <0>     1      34.489  14.517 -22.773  1.00  0.00     0.058 A 
HETATM    6  C5  <0>     1      35.351  14.418 -21.698  1.00  0.00     0.095 A 
HETATM    7  O2  <0>     1      36.562  13.968 -22.069  1.00  0.00    -0.331 OA
HETATM    8  C18 <0>     1      37.602  14.622 -24.168  1.00  0.00     0.055 C 
ENDROOT
BRANCH   6   9
HETATM    9  C6  <0>     1      34.988  14.765 -20.314  1.00  0.00    -0.002 A 
HETATM   10  C11 <0>     1      34.572  13.769 -19.425  1.00  0.00     0.016 A 
HETATM   11  C10 <0>     1      34.238  14.102 -18.130  1.00  0.00     0.026 A 
HETATM   12  C9  <0>     1      34.303  15.420 -17.711  1.00  0.00     0.079 A 
HETATM   13  C8  <0>     1      34.708  16.413 -18.586  1.00  0.00     0.026 A 
HETATM   14  C7  <0>     1      35.051  16.094 -19.883  1.00  0.00     0.016 A 
BRANCH  12  15
HETATM   15  S1  <0>     1      33.868  15.837 -16.055  1.00  0.00     0.256 S 
HETATM   16  O3  <0>     1      33.777  14.612 -15.339  1.00  0.00    -0.201 OA
HETATM   17  O4  <0>     1      34.737  16.888 -15.658  1.00  0.00    -0.201 OA
BRANCH  15  18
HETATM   18  N1  <0>     1      32.340  16.475 -16.096  1.00  0.00    -0.324 N 
HETATM   19  H8  <0>     1      31.569  15.887 -16.100  1.00  0.00     0.169 HD
HETATM   20  H9  <0>     1      32.217  17.437 -16.116  1.00  0.00     0.169 HD
ENDBRANCH  15  18
ENDBRANCH  12  15
ENDBRANCH   6   9
BRANCH   5  21
HETATM   21  C12 <0>     1      33.082  14.978 -22.708  1.00  0.00    -0.017 A 
HETATM   22  C13 <0>     1      32.713  16.186 -23.298  1.00  0.00     0.012 A 
HETATM   23  C14 <0>     1      31.402  16.612 -23.234  1.00  0.00     0.004 A 
HETATM   24  C15 <0>     1      30.452  15.842 -22.586  1.00  0.00     0.042 A 
HETATM   25  C16 <0>     1      30.812  14.641 -21.997  1.00  0.00     0.117 A 
HETATM   26  C17 <0>     1      32.121  14.202 -22.061  1.00  0.00     0.054 A 
HETATM   27  F1  <0>     1      29.880  13.894 -21.367  1.00  0.00    -0.206 F 
ENDBRANCH   5  21
TORSDOF 4
ENDMDL
MODEL 2
REMARK VINA RESULT:      -6.7      2.876      4.898
REMARK  4 active torsions:
REMARK  status: ('A' for Active; 'I' for Inactive)
REMARK    1  A    between atoms: C12_18  and  C4_5 
REMARK    2  A    between atoms: C5_6  and  C6_8 
REMARK    3  A    between atoms: C9_11  and  S1_14 
REMARK    4  A    between atoms: N1_17  and  S1_14 
ROOT
HETATM    1  C1  <0>     1      31.627  17.331 -26.783  1.00  0.00     0.055 C 
HETATM    2  C2  <0>     1      31.231  15.995 -26.151  1.00  0.00     0.125 A 
HETATM    3  C3  <0>     1      32.248  14.928 -26.499  1.00  0.00     0.197 A 
HETATM    4  O1  <0>     1      32.546  14.524 -27.605  1.00  0.00    -0.289 OA
HETATM    5  C4  <0>     1      32.775  14.503 -25.258  1.00  0.00     0.058 A 
HETATM    6  C5  <0>     1      32.165  15.217 -24.245  1.00  0.00     0.095 A 
HETATM    7  O2  <0>     1      31.264  16.092 -24.722  1.00  0.00    -0.331 OA
HETATM    8  C18 <0>     1      29.837  15.577 -26.624  1.00  0.00     0.055 C 
ENDROOT
BRANCH   6   9
HETATM    9  C6  <0>     1      32.466  15.039 -22.815  1.00  0.00    -0.002 A 
HETATM   10  C11 <0>     1      33.589  15.653 -22.250  1.00  0.00     0.016 A 
HETATM   11  C10 <0>     1      33.860  15.486 -20.909  1.00  0.00     0.026 A 
HETATM   12  C9  <0>     1      33.031  14.703 -20.124  1.00  0.00     0.079 A 
HETATM   13  C8  <0>     1      31.921  14.088 -20.676  1.00  0.00     0.026 A 
HETATM   14  C7  <0>     1      31.633  14.251 -22.014  1.00  0.00     0.016 A 
BRANCH  12  15
HETATM   15  S1  <0>     1      33.390  14.490 -18.412  1.00  0.00     0.256 S 
HETATM   16  O3  <0>     1      34.292  15.528 -18.054  1.00  0.00    -0.201 OA
HETATM   17  O4  <0>     1      32.143  14.305 -17.755  1.00  0.00    -0.201 OA
BRANCH  15  18
HETATM   18  N1  <0>     1      34.222  13.066 -18.260  1.00  0.00    -0.324 N 
HETATM   19  H8  <0>     1      35.125  13.068 -17.908  1.00  0.00     0.169 HD
HETATM   20  H9  <0>     1      33.805  12.231 -18.522  1.00  0.00     0.169 HD
ENDBRANCH  15  18
ENDBRANCH  12  15
ENDBRANCH   6   9
BRANCH   5  21
HETATM   21  C12 <0>     1      33.814  13.463 -25.074  1.00  0.00    -0.017 A 
HETATM   22  C13 <0>     1      35.165  13.800 -25.154  1.00  0.00     0.012 A 
HETATM   23  C14 <0>     1      36.128  12.827 -24.982  1.00  0.00     0.004 A 
HETATM   24  C15 <0>     1      35.758  11.518 -24.729  1.00  0.00     0.042 A 
HETATM   25  C16 <0>     1      34.418  11.176 -24.648  1.00  0.00     0.117 A 
HETATM   26  C17 <0>     1      33.444  12.144 -24.813  1.00  0.00     0.054 A 
HETATM   27  F1  <0>     1      34.062   9.897 -24.400  1.00  0.00    -0.206 F 
ENDBRANCH   5  21
TORSDOF 4
ENDMDL
MODEL 3
REMARK VINA RESULT:      -6.7      4.232      7.014
REMARK  4 active torsions:
REMARK  status: ('A' for Active; 'I' for Inactive)
REMARK    1  A    between atoms: C12_18  and  C4_5 
REMARK    2  A    between atoms: C5_6  and  C6_8 
REMARK    3  A    between atoms: C9_11  and  S1_14 
REMARK    4  A    between atoms: N1_17  and  S1_14 
ROOT
HETATM    1  C1  <0>     1      34.181  13.948 -18.112  1.00  0.00     0.055 C 
HETATM    2  C2  <0>     1      34.526  15.037 -19.131  1.00  0.00     0.125 A 
HETATM    3  C3  <0>     1      35.758  14.646 -19.920  1.00  0.00     0.197 A 
HETATM    4  O1  <0>     1      36.875  14.439 -19.491  1.00  0.00    -0.289 OA
HETATM    5  C4  <0>     1      35.327  14.575 -21.264  1.00  0.00     0.058 A 
HETATM    6  C5  <0>     1      33.982  14.883 -21.319  1.00  0.00     0.095 A 
HETATM    7  O2  <0>     1      33.481  15.157 -20.103  1.00  0.00    -0.331 OA
HETATM    8  C18 <0>     1      34.749  16.375 -18.422  1.00  0.00     0.055 C 
ENDROOT
BRANCH   6   9
HETATM    9  C6  <0>     1      33.192  14.910 -22.562  1.00  0.00    -0.002 A 
HETATM   10  C11 <0>     1      33.101  16.086 -23.313  1.00  0.00     0.016 A 
HETATM   11  C10 <0>     1      32.364  16.100 -24.478  1.00  0.00     0.026 A 
HETATM   12  C9  <0>     1      31.705  14.958 -24.899  1.00  0.00     0.079 A 
HETATM   13  C8  <0>     1      31.787  13.791 -24.159  1.00  0.00     0.026 A 
HETATM   14  C7  <0>     1      32.525  13.759 -22.995  1.00  0.00     0.016 A 
BRANCH  12  15
HETATM   15  S1  <0>     1      30.761  14.988 -26.386  1.00  0.00     0.256 S 
HETATM   16  O3  <0>     1      30.271  13.668 -26.583  1.00  0.00    -0.201 OA
HETATM   17  O4  <0>     1      29.898  16.114 -26.297  1.00  0.00    -0.201 OA
BRANCH  15  18
HETATM   18  N1  <0>     1      31.812  15.293 -27.628  1.00  0.00    -0.324 N 
HETATM   19  H8  <0>     1      32.625  14.771 -27.714  1.00  0.00     0.169 HD
HETATM   20  H9  <0>     1      31.615  15.993 -28.269  1.00  0.00     0.169 HD
ENDBRANCH  15  18
ENDBRANCH  12  15
ENDBRANCH   6   9
BRANCH   5  21
HETATM   21  C12 <0>     1      36.178  14.226 -22.425  1.00  0.00    -0.017 A 
HETATM   22  C13 <0>     1      36.165  12.929 -22.939  1.00  0.00     0.012 A 
HETATM   23  C14 <0>     1      36.961  12.609 -24.020  1.00  0.00     0.004 A 
HETATM   24  C15 <0>     1      37.771  13.570 -24.596  1.00  0.00     0.042 A 
HETATM   25  C16 <0>     1      37.789  14.861 -24.091  1.00  0.00     0.117 A 
HETATM   26  C17 <0>     1      36.992  15.194 -23.012  1.00  0.00     0.054 A 
HETATM   27  F1  <0>     1      38.582  15.795 -24.658  1.00  0.00    -0.206 F 
ENDBRANCH   5  21
TORSDOF 4
ENDMDL
MODEL 4
REMARK VINA RESULT:      -6.7      1.749      2.154
REMARK  4 active torsions:
REMARK  status: ('A' for Active; 'I' for Inactive)
REMARK    1  A    between atoms: C12_18  and  C4_5 
REMARK    2  A    between atoms: C5_6  and  C6_8 
REMARK    3  A    between atoms: C9_11  and  S1_14 
REMARK    4  A    between atoms: N1_17  and  S1_14 
ROOT
HETATM    1  C1  <0>     1      38.603  14.258 -24.422  1.00  0.00     0.055 C 
HETATM    2  C2  <0>     1      37.637  15.381 -24.039  1.00  0.00     0.125 A 
HETATM    3  C3  <0>     1      36.310  15.194 -24.743  1.00  0.00     0.197 A 
HETATM    4  O1  <0>     1      36.104  15.179 -25.940  1.00  0.00    -0.289 OA
HETATM    5  C4  <0>     1      35.361  15.042 -23.706  1.00  0.00     0.058 A 
HETATM    6  C5  <0>     1      36.011  15.122 -22.490  1.00  0.00     0.095 A 
HETATM    7  O2  <0>     1      37.332  15.318 -22.641  1.00  0.00    -0.331 OA
HETATM    8  C18 <0>     1      38.240  16.743 -24.391  1.00  0.00     0.055 C 
ENDROOT
BRANCH   6   9
HETATM    9  C6  <0>     1      35.337  15.008 -21.186  1.00  0.00    -0.002 A 
HETATM   10  C11 <0>     1      35.091  13.749 -20.629  1.00  0.00     0.016 A 
HETATM   11  C10 <0>     1      34.465  13.651 -19.405  1.00  0.00     0.026 A 
HETATM   12  C9  <0>     1      34.069  14.794 -18.732  1.00  0.00     0.079 A 
HETATM   13  C8  <0>     1      34.304  16.044 -19.279  1.00  0.00     0.026 A 
HETATM   14  C7  <0>     1      34.935  16.158 -20.499  1.00  0.00     0.016 A 
BRANCH  12  15
HETATM   15  S1  <0>     1      33.263  14.658 -17.171  1.00  0.00     0.256 S 
HETATM   16  O3  <0>     1      31.890  14.411 -17.444  1.00  0.00    -0.201 OA
HETATM   17  O4  <0>     1      34.052  13.780 -16.381  1.00  0.00    -0.201 OA
BRANCH  15  18
HETATM   18  N1  <0>     1      33.342  16.146 -16.449  1.00  0.00    -0.324 N 
HETATM   19  H8  <0>     1      33.059  16.253 -15.527  1.00  0.00     0.169 HD
HETATM   20  H9  <0>     1      33.671  16.910 -16.947  1.00  0.00     0.169 HD
ENDBRANCH  15  18
ENDBRANCH  12  15
ENDBRANCH   6   9
BRANCH   5  21
HETATM   21  C12 <0>     1      33.907  14.830 -23.892  1.00  0.00    -0.017 A 
HETATM   22  C13 <0>     1      33.411  13.550 -24.138  1.00  0.00     0.012 A 
HETATM   23  C14 <0>     1      32.055  13.359 -24.312  1.00  0.00     0.004 A 
HETATM   24  C15 <0>     1      31.186  14.432 -24.241  1.00  0.00     0.042 A 
HETATM   25  C16 <0>     1      31.672  15.707 -23.997  1.00  0.00     0.117 A 
HETATM   26  C17 <0>     1      33.027  15.910 -23.816  1.00  0.00     0.054 A 
HETATM   27  F1  <0>     1      30.818  16.752 -23.928  1.00  0.00    -0.206 F 
ENDBRANCH   5  21
TORSDOF 4
ENDMDL
MODEL 5
REMARK VINA RESULT:      -6.5      3.159      5.058
REMARK  4 active torsions:
REMARK  status: ('A' for Active; 'I' for Inactive)
REMARK    1  A    between atoms: C12_18  and  C4_5 
REMARK    2  A    between atoms: C5_6  and  C6_8 
REMARK    3  A    between atoms: C9_11  and  S1_14 
REMARK    4  A    between atoms: N1_17  and  S1_14 
ROOT
HETATM    1  C1  <0>     1      31.581  17.421 -27.177  1.00  0.00     0.055 C 
HETATM    2  C2  <0>     1      31.174  16.248 -26.283  1.00  0.00     0.125 A 
HETATM    3  C3  <0>     1      31.970  15.012 -26.642  1.00  0.00     0.197 A 
HETATM    4  O1  <0>     1      31.988  14.428 -27.708  1.00  0.00    -0.289 OA
HETATM    5  C4  <0>     1      32.688  14.682 -25.470  1.00  0.00     0.058 A 
HETATM    6  C5  <0>     1      32.383  15.601 -24.486  1.00  0.00     0.095 A 
HETATM    7  O2  <0>     1      31.509  16.525 -24.918  1.00  0.00    -0.331 OA
HETATM    8  C18 <0>     1      29.674  15.975 -26.417  1.00  0.00     0.055 C 
ENDROOT
BRANCH   6   9
HETATM    9  C6  <0>     1      32.947  15.571 -23.126  1.00  0.00    -0.002 A 
HETATM   10  C11 <0>     1      32.348  14.789 -22.133  1.00  0.00     0.016 A 
HETATM   11  C10 <0>     1      32.887  14.762 -20.864  1.00  0.00     0.026 A 
HETATM   12  C9  <0>     1      34.010  15.516 -20.568  1.00  0.00     0.079 A 
HETATM   13  C8  <0>     1      34.605  16.296 -21.544  1.00  0.00     0.026 A 
HETATM   14  C7  <0>     1      34.082  16.328 -22.819  1.00  0.00     0.016 A 
BRANCH  12  15
HETATM   15  S1  <0>     1      34.686  15.480 -18.942  1.00  0.00     0.256 S 
HETATM   16  O3  <0>     1      33.681  14.939 -18.095  1.00  0.00    -0.201 OA
HETATM   17  O4  <0>     1      35.980  14.902 -19.051  1.00  0.00    -0.201 OA
BRANCH  15  18
HETATM   18  N1  <0>     1      34.908  17.051 -18.469  1.00  0.00    -0.324 N 
HETATM   19  H8  <0>     1      35.625  17.277 -17.857  1.00  0.00     0.169 HD
HETATM   20  H9  <0>     1      34.321  17.746 -18.805  1.00  0.00     0.169 HD
ENDBRANCH  15  18
ENDBRANCH  12  15
ENDBRANCH   6   9
BRANCH   5  21
HETATM   21  C12 <0>     1      33.617  13.537 -25.322  1.00  0.00    -0.017 A 
HETATM   22  C13 <0>     1      33.139  12.297 -24.901  1.00  0.00     0.012 A 
HETATM   23  C14 <0>     1      34.009  11.234 -24.763  1.00  0.00     0.004 A 
HETATM   24  C15 <0>     1      35.354  11.396 -25.042  1.00  0.00     0.042 A 
HETATM   25  C16 <0>     1      35.836  12.626 -25.461  1.00  0.00     0.117 A 
HETATM   26  C17 <0>     1      34.972  13.696 -25.608  1.00  0.00     0.054 A 
HETATM   27  F1  <0>     1      37.150  12.778 -25.732  1.00  0.00    -0.206 F 
ENDBRANCH   5  21
TORSDOF 4
ENDMDL
MODEL 6
REMARK VINA RESULT:      -6.4      4.576      6.588
REMARK  4 active torsions:
REMARK  status: ('A' for Active; 'I' for Inactive)
REMARK    1  A    between atoms: C12_18  and  C4_5 
REMARK    2  A    between atoms: C5_6  and  C6_8 
REMARK    3  A    between atoms: C9_11  and  S1_14 
REMARK    4  A    between atoms: N1_17  and  S1_14 
ROOT
HETATM    1  C1  <0>     1      31.035  13.161 -25.687  1.00  0.00     0.055 C 
HETATM    2  C2  <0>     1      31.551  14.496 -25.147  1.00  0.00     0.125 A 
HETATM    3  C3  <0>     1      31.671  14.442 -23.639  1.00  0.00     0.197 A 
HETATM    4  O1  <0>     1      30.781  14.254 -22.833  1.00  0.00    -0.289 OA
HETATM    5  C4  <0>     1      33.041  14.659 -23.370  1.00  0.00     0.058 A 
HETATM    6  C5  <0>     1      33.710  14.829 -24.566  1.00  0.00     0.095 A 
HETATM    7  O2  <0>     1      32.881  14.741 -25.620  1.00  0.00    -0.331 OA
HETATM    8  C18 <0>     1      30.619  15.635 -25.568  1.00  0.00     0.055 C 
ENDROOT
BRANCH   6   9
HETATM    9  C6  <0>     1      35.158  15.078 -24.673  1.00  0.00    -0.002 A 
HETATM   10  C11 <0>     1      36.056  14.006 -24.698  1.00  0.00     0.016 A 
HETATM   11  C10 <0>     1      37.409  14.247 -24.804  1.00  0.00     0.026 A 
HETATM   12  C9  <0>     1      37.881  15.547 -24.874  1.00  0.00     0.079 A 
HETATM   13  C8  <0>     1      36.999  16.613 -24.845  1.00  0.00     0.026 A 
HETATM   14  C7  <0>     1      35.642  16.388 -24.745  1.00  0.00     0.016 A 
BRANCH  12  15
HETATM   15  S1  <0>     1      39.612  15.846 -25.002  1.00  0.00     0.256 S 
HETATM   16  O3  <0>     1      39.793  17.250 -24.878  1.00  0.00    -0.201 OA
HETATM   17  O4  <0>     1      40.251  14.917 -24.137  1.00  0.00    -0.201 OA
BRANCH  15  18
HETATM   18  N1  <0>     1      40.065  15.446 -26.544  1.00  0.00    -0.324 N 
HETATM   19  H8  <0>     1      40.604  16.060 -27.066  1.00  0.00     0.169 HD
HETATM   20  H9  <0>     1      39.791  14.597 -26.925  1.00  0.00     0.169 HD
ENDBRANCH  15  18
ENDBRANCH  12  15
ENDBRANCH   6   9
BRANCH   5  21
HETATM   21  C12 <0>     1      33.661  14.697 -22.024  1.00  0.00    -0.017 A 
HETATM   22  C13 <0>     1      34.050  13.513 -21.399  1.00  0.00     0.012 A 
HETATM   23  C14 <0>     1      34.625  13.553 -20.145  1.00  0.00     0.004 A 
HETATM   24  C15 <0>     1      34.818  14.765 -19.507  1.00  0.00     0.042 A 
HETATM   25  C16 <0>     1      34.434  15.946 -20.123  1.00  0.00     0.117 A 
HETATM   26  C17 <0>     1      33.862  15.917 -21.381  1.00  0.00     0.054 A 
HETATM   27  F1  <0>     1      34.626  17.127 -19.496  1.00  0.00    -0.206 F 
ENDBRANCH   5  21
TORSDOF 4
ENDMDL
MODEL 7
REMARK VINA RESULT:      -6.3      4.463      6.580
REMARK  4 active torsions:
REMARK  status: ('A' for Active; 'I' for Inactive)
REMARK    1  A    between atoms: C12_18  and  C4_5 
REMARK    2  A    between atoms: C5_6  and  C6_8 
REMARK    3  A    between atoms: C9_11  and  S1_14 
REMARK    4  A    between atoms: N1_17  and  S1_14 
ROOT
HETATM    1  C1  <0>     1      29.975  15.111 -26.085  1.00  0.00     0.055 C 
HETATM    2  C2  <0>     1      31.384  15.650 -25.830  1.00  0.00     0.125 A 
HETATM    3  C3  <0>     1      31.550  16.017 -24.370  1.00  0.00     0.197 A 
HETATM    4  O1  <0>     1      30.923  16.846 -23.741  1.00  0.00    -0.289 OA
HETATM    5  C4  <0>     1      32.593  15.188 -23.898  1.00  0.00     0.058 A 
HETATM    6  C5  <0>     1      33.034  14.390 -24.935  1.00  0.00     0.095 A 
HETATM    7  O2  <0>     1      32.358  14.628 -26.072  1.00  0.00    -0.331 OA
HETATM    8  C18 <0>     1      31.656  16.865 -26.720  1.00  0.00     0.055 C 
ENDROOT
BRANCH   6   9
HETATM    9  C6  <0>     1      34.116  13.399 -24.811  1.00  0.00    -0.002 A 
HETATM   10  C11 <0>     1      35.403  13.700 -25.267  1.00  0.00     0.016 A 
HETATM   11  C10 <0>     1      36.411  12.769 -25.141  1.00  0.00     0.026 A 
HETATM   12  C9  <0>     1      36.149  11.532 -24.576  1.00  0.00     0.079 A 
HETATM   13  C8  <0>     1      34.876  11.224 -24.127  1.00  0.00     0.026 A 
HETATM   14  C7  <0>     1      33.860  12.147 -24.240  1.00  0.00     0.016 A 
BRANCH  12  15
HETATM   15  S1  <0>     1      37.442  10.345 -24.426  1.00  0.00     0.256 S 
HETATM   16  O3  <0>     1      37.252   9.692 -23.178  1.00  0.00    -0.201 OA
HETATM   17  O4  <0>     1      37.488   9.635 -25.656  1.00  0.00    -0.201 OA
BRANCH  15  18
HETATM   18  N1  <0>     1      38.865  11.184 -24.309  1.00  0.00    -0.324 N 
HETATM   19  H8  <0>     1      38.885  12.045 -23.864  1.00  0.00     0.169 HD
HETATM   20  H9  <0>     1      39.678  10.814 -24.686  1.00  0.00     0.169 HD
ENDBRANCH  15  18
ENDBRANCH  12  15
ENDBRANCH   6   9
BRANCH   5  21
HETATM   21  C12 <0>     1      33.125  15.175 -22.516  1.00  0.00    -0.017 A 
HETATM   22  C13 <0>     1      34.352  15.776 -22.232  1.00  0.00     0.012 A 
HETATM   23  C14 <0>     1      34.844  15.760 -20.942  1.00  0.00     0.004 A 
HETATM   24  C15 <0>     1      34.123  15.151 -19.931  1.00  0.00     0.042 A 
HETATM   25  C16 <0>     1      32.904  14.553 -20.205  1.00  0.00     0.117 A 
HETATM   26  C17 <0>     1      32.399  14.568 -21.492  1.00  0.00     0.054 A 
HETATM   27  F1  <0>     1      32.205  13.961 -19.213  1.00  0.00    -0.206 F 
ENDBRANCH   5  21
TORSDOF 4
ENDMDL
MODEL 8
REMARK VINA RESULT:      -6.3      4.971      7.362
REMARK  4 active torsions:
REMARK  status: ('A' for Active; 'I' for Inactive)
REMARK    1  A    between atoms: C12_18  and  C4_5 
REMARK    2  A    between atoms: C5_6  and  C6_8 
REMARK    3  A    between atoms: C9_11  and  S1_14 
REMARK    4  A    between atoms: N1_17  and  S1_14 
ROOT
HETATM    1  C1  <0>     1      35.917  10.374 -25.448  1.00  0.00     0.055 C 
HETATM    2  C2  <0>     1      34.453  10.445 -25.008  1.00  0.00     0.125 A 
HETATM    3  C3  <0>     1      34.334  11.196 -23.699  1.00  0.00     0.197 A 
HETATM    4  O1  <0>     1      34.830  10.901 -22.630  1.00  0.00    -0.289 OA
HETATM    5  C4  <0>     1      33.520  12.315 -23.989  1.00  0.00     0.058 A 
HETATM    6  C5  <0>     1      33.166  12.277 -25.324  1.00  0.00     0.095 A 
HETATM    7  O2  <0>     1      33.688  11.208 -25.949  1.00  0.00    -0.331 OA
HETATM    8  C18 <0>     1      33.872   9.036 -24.870  1.00  0.00     0.055 C 
ENDROOT
BRANCH   6   9
HETATM    9  C6  <0>     1      32.319  13.285 -25.982  1.00  0.00    -0.002 A 
HETATM   10  C11 <0>     1      32.903  14.374 -26.638  1.00  0.00     0.016 A 
HETATM   11  C10 <0>     1      32.102  15.311 -27.256  1.00  0.00     0.026 A 
HETATM   12  C9  <0>     1      30.724  15.183 -27.218  1.00  0.00     0.079 A 
HETATM   13  C8  <0>     1      30.139  14.111 -26.566  1.00  0.00     0.026 A 
HETATM   14  C7  <0>     1      30.926  13.163 -25.949  1.00  0.00     0.016 A 
BRANCH  12  15
HETATM   15  S1  <0>     1      29.709  16.390 -28.005  1.00  0.00     0.256 S 
HETATM   16  O3  <0>     1      30.382  17.635 -27.872  1.00  0.00    -0.201 OA
HETATM   17  O4  <0>     1      29.345  15.853 -29.269  1.00  0.00    -0.201 OA
BRANCH  15  18
HETATM   18  N1  <0>     1      28.315  16.508 -27.120  1.00  0.00    -0.324 N 
HETATM   19  H8  <0>     1      27.929  15.716 -26.715  1.00  0.00     0.169 HD
HETATM   20  H9  <0>     1      27.884  17.370 -27.007  1.00  0.00     0.169 HD
ENDBRANCH  15  18
ENDBRANCH  12  15
ENDBRANCH   6   9
BRANCH   5  21
HETATM   21  C12 <0>     1      33.112  13.359 -23.020  1.00  0.00    -0.017 A 
HETATM   22  C13 <0>     1      31.860  13.297 -22.409  1.00  0.00     0.012 A 
HETATM   23  C14 <0>     1      31.486  14.273 -21.508  1.00  0.00     0.004 A 
HETATM   24  C15 <0>     1      32.348  15.312 -21.209  1.00  0.00     0.042 A 
HETATM   25  C16 <0>     1      33.594  15.379 -21.812  1.00  0.00     0.117 A 
HETATM   26  C17 <0>     1      33.982  14.404 -22.712  1.00  0.00     0.054 A 
HETATM   27  F1  <0>     1      34.432  16.396 -21.516  1.00  0.00    -0.206 F 
ENDBRANCH   5  21
TORSDOF 4
ENDMDL
MODEL 9
REMARK VINA RESULT:      -6.3      4.666      6.816
REMARK  4 active torsions:
REMARK  status: ('A' for Active; 'I' for Inactive)
REMARK    1  A    between atoms: C12_18  and  C4_5 
REMARK    2  A    between atoms: C5_6  and  C6_8 
REMARK    3  A    between atoms: C9_11  and  S1_14 
REMARK    4  A    between atoms: N1_17  and  S1_14 
ROOT
HETATM    1  C1  <0>     1      35.373  15.327 -19.956  1.00  0.00     0.055 C 
HETATM    2  C2  <0>     1      34.331  14.265 -20.316  1.00  0.00     0.125 A 
HETATM    3  C3  <0>     1      33.454  14.753 -21.449  1.00  0.00     0.197 A 
HETATM    4  O1  <0>     1      32.728  15.727 -21.454  1.00  0.00    -0.289 OA
HETATM    5  C4  <0>     1      33.660  13.830 -22.499  1.00  0.00     0.058 A 
HETATM    6  C5  <0>     1      34.563  12.871 -22.080  1.00  0.00     0.095 A 
HETATM    7  O2  <0>     1      34.975  13.089 -20.820  1.00  0.00    -0.331 OA
HETATM    8  C18 <0>     1      33.480  13.921 -19.091  1.00  0.00     0.055 C 
ENDROOT
BRANCH   6   9
HETATM    9  C6  <0>     1      35.017  11.746 -22.915  1.00  0.00    -0.002 A 
HETATM   10  C11 <0>     1      34.251  10.579 -23.000  1.00  0.00     0.016 A 
HETATM   11  C10 <0>     1      34.681   9.533 -23.788  1.00  0.00     0.026 A 
HETATM   12  C9  <0>     1      35.874   9.630 -24.484  1.00  0.00     0.079 A 
HETATM   13  C8  <0>     1      36.641  10.779 -24.400  1.00  0.00     0.026 A 
HETATM   14  C7  <0>     1      36.221  11.837 -23.622  1.00  0.00     0.016 A 
BRANCH  12  15
HETATM   15  S1  <0>     1      36.418   8.285 -25.483  1.00  0.00     0.256 S 
HETATM   16  O3  <0>     1      35.883   8.500 -26.781  1.00  0.00    -0.201 OA
HETATM   17  O4  <0>     1      37.813   8.142 -25.248  1.00  0.00    -0.201 OA
BRANCH  15  18
HETATM   18  N1  <0>     1      35.697   6.915 -24.895  1.00  0.00    -0.324 N 
HETATM   19  H8  <0>     1      36.120   6.412 -24.182  1.00  0.00     0.169 HD
HETATM   20  H9  <0>     1      34.851   6.617 -25.263  1.00  0.00     0.169 HD
ENDBRANCH  15  18
ENDBRANCH  12  15
ENDBRANCH   6   9
BRANCH   5  21
HETATM   21  C12 <0>     1      33.016  13.881 -23.832  1.00  0.00    -0.017 A 
HETATM   22  C13 <0>     1      33.740  14.307 -24.944  1.00  0.00     0.012 A 
HETATM   23  C14 <0>     1      33.135  14.354 -26.184  1.00  0.00     0.004 A 
HETATM   24  C15 <0>     1      31.811  13.979 -26.326  1.00  0.00     0.042 A 
HETATM   25  C16 <0>     1      31.085  13.554 -25.225  1.00  0.00     0.117 A 
HETATM   26  C17 <0>     1      31.683  13.498 -23.979  1.00  0.00     0.054 A 
HETATM   27  F1  <0>     1      29.793  13.188 -25.369  1.00  0.00    -0.206 F 
ENDBRANCH   5  21
TORSDOF 4
ENDMDL
MODEL 10
REMARK VINA RESULT:      -6.2      4.612      7.233
REMARK  4 active torsions:
REMARK  status: ('A' for Active; 'I' for Inactive)
REMARK    1  A    between atoms: C12_18  and  C4_5 
REMARK    2  A    between atoms: C5_6  and  C6_8 
REMARK    3  A    between atoms: C9_11  and  S1_14 
REMARK    4  A    between atoms: N1_17  and  S1_14 
ROOT
HETATM    1  C1  <0>     1      32.961  14.277 -19.304  1.00  0.00     0.055 C 
HETATM    2  C2  <0>     1      33.697  14.929 -20.476  1.00  0.00     0.125 A 
HETATM    3  C3  <0>     1      34.521  13.898 -21.218  1.00  0.00     0.197 A 
HETATM    4  O1  <0>     1      35.436  13.229 -20.780  1.00  0.00    -0.289 OA
HETATM    5  C4  <0>     1      33.997  13.882 -22.531  1.00  0.00     0.058 A 
HETATM    6  C5  <0>     1      32.962  14.794 -22.610  1.00  0.00     0.095 A 
HETATM    7  O2  <0>     1      32.758  15.421 -21.439  1.00  0.00    -0.331 OA
HETATM    8  C18 <0>     1      34.590  16.066 -19.976  1.00  0.00     0.055 C 
ENDROOT
BRANCH   6   9
HETATM    9  C6  <0>     1      32.179  15.048 -23.831  1.00  0.00    -0.002 A 
HETATM   10  C11 <0>     1      31.284  14.085 -24.306  1.00  0.00     0.016 A 
HETATM   11  C10 <0>     1      30.551  14.334 -25.447  1.00  0.00     0.026 A 
HETATM   12  C9  <0>     1      30.708  15.529 -26.128  1.00  0.00     0.079 A 
HETATM   13  C8  <0>     1      31.596  16.485 -25.667  1.00  0.00     0.026 A 
HETATM   14  C7  <0>     1      32.331  16.253 -24.525  1.00  0.00     0.016 A 
BRANCH  12  15
HETATM   15  S1  <0>     1      29.772  15.834 -27.589  1.00  0.00     0.256 S 
HETATM   16  O3  <0>     1      29.712  14.604 -28.299  1.00  0.00    -0.201 OA
HETATM   17  O4  <0>     1      28.604  16.537 -27.185  1.00  0.00    -0.201 OA
BRANCH  15  18
HETATM   18  N1  <0>     1      30.652  16.878 -28.526  1.00  0.00    -0.324 N 
HETATM   19  H8  <0>     1      31.133  16.547 -29.300  1.00  0.00     0.169 HD
HETATM   20  H9  <0>     1      30.687  17.821 -28.300  1.00  0.00     0.169 HD
ENDBRANCH  15  18
ENDBRANCH  12  15
ENDBRANCH   6   9
BRANCH   5  21
HETATM   21  C12 <0>     1      34.476  13.025 -23.640  1.00  0.00    -0.017 A 
HETATM   22  C13 <0>     1      35.346  13.543 -24.599  1.00  0.00     0.012 A 
HETATM   23  C14 <0>     1      35.789  12.742 -25.632  1.00  0.00     0.004 A 
HETATM   24  C15 <0>     1      35.374  11.425 -25.717  1.00  0.00     0.042 A 
HETATM   25  C16 <0>     1      34.510  10.904 -24.768  1.00  0.00     0.117 A 
HETATM   26  C17 <0>     1      34.064  11.696 -23.727  1.00  0.00     0.054 A 
HETATM   27  F1  <0>     1      34.107   9.618 -24.857  1.00  0.00    -0.206 F 
ENDBRANCH   5  21
TORSDOF 4
ENDMDL
